<?xml version="1.0" encoding="UTF-8"?>

<!-- generated on 2025-10-15 21:46:54.667569 by randomTrips.py v1_24_0+0000-b72eb3fabc8
<configuration>
    <net-file value="C:\Users\Pedro\Desktop\SUMO\CENTRO\centro.net.xml"/>
    <route-file value="centro.rou.xml"/>
    <length value="True"/>
    <end value="50.0"/>
</configuration>
-->

<!-- generated on 2025-10-15 21:46:54 by Eclipse SUMO duarouter Version 1.24.0
<duarouterConfiguration xmlns:xsi="http://www.w3.org/2001/XMLSchema-instance" xsi:noNamespaceSchemaLocation="http://sumo.dlr.de/xsd/duarouterConfiguration.xsd">

    <input>
        <net-file value="C:\Users\Pedro\Desktop\SUMO\CENTRO\centro.net.xml"/>
        <route-files value="trips.trips.xml"/>
    </input>

    <output>
        <output-file value="centro.rou.xml"/>
        <alternatives-output value="NUL"/>
    </output>

    <time>
        <begin value="0"/>
        <end value="50.0"/>
    </time>

    <report>
        <no-warnings value="true"/>
        <ignore-errors value="true"/>
        <no-step-log value="true"/>
    </report>

</duarouterConfiguration>
-->

<routes xmlns:xsi="http://www.w3.org/2001/XMLSchema-instance" xsi:noNamespaceSchemaLocation="http://sumo.dlr.de/xsd/routes_file.xsd">
    <vehicle id="0" depart="0.00">
        <route edges="26129071#3 26129071#4 189294337 189609911 189609909 189294312 189294331 26129161#0 26129161#1 26129161#2 26129161#3 26129161#4 26129161#5 26129161#6 26129161#7 27710537#0 27710537#1 210836556 163710817#0 163710817#1 760072655 163710816 76095125#3 189754932#0 189754932#1 189754933#0 189754933#1 189754933#2 189754933#3 189754933#4 189754933#5 189754933#6 189754933#7 189754933#8 188258542#0 188258542#1 23194230#0 23194230#1 188258669 328257092 188258606 190097581 188258616#0 188258616#1 188258616#2 410818720 -410818718 -163596461#4 -163596461#3 -163596461#2 -163596461#1"/>
    </vehicle>
    <vehicle id="1" depart="1.00">
        <route edges="163498800#1 163498800#2 163498800#3 28499173#0 28499173#1 28499173#2 28499173#3 85476569#3 85476569#4 85476569#5 85476569#6 274799315#0 274799315#1 274799315#2 274799315#3 274799315#4 538362597#0 538362597#1 686802423 101360285#0 101360285#1 274796193 188258563 190097574#0 190097574#1 188258569#0 188258569#1 188258569#2 188258569#3 410828246 410828248#0 410828248#1 410828248#2 188258533#0 188258533#1 188258561#0 188258561#1 208140904#0 208140904#1 188258573#0 188258573#1 188258573#2 188258573#3 188258573#4 188258573#5 26129185#0 26129185#1 26129185#2 26129185#3 26129185#4 23027503#3 24700320#0 24700320#1 1316386645"/>
    </vehicle>
    <vehicle id="2" depart="2.00">
        <route edges="27710535#1 27710535#2 -27710535#2 -27710535#1 -27710535#0 717846328#3 717846328#4 717846328#5 717846328#6 717846328#7 26129072 189294353 189294337 189609911 189609909 189294312 189294331 26129161#0 26129161#1 26129161#2 26129161#3 26129161#4 26129161#5 26129161#6 26129161#7 -94225818#3 -94225818#2 -94225818#1 -94225818#0 134780167 94225928 -837666980#1 -837666980#0 -837666981#1 -837666981#0 -837666982 -23528550#2 -23528550#1 -23528550#0 189294314#1 27643280#0 27643280#1"/>
    </vehicle>
    <vehicle id="3" depart="3.00">
        <route edges="817341820#0 817341820#1 -817341820#1 -817341820#0 -22756817#5 -22756817#4 -22756817#3 -22756817#2 -22756817#1 -22756817#0 189599773#1 189599779 11300967 23817698#0 23817698#1 23817726 99206459 189609906#0 189609906#1 189609903 189286902 75731747 1153445047#0 1153445047#1 189286906#0 189286906#1 189286906#2 189286906#3 189286906#4 159381332 27710653 27710659#0 27710659#1 717846327#0 717846327#1 1153448905 717846328#0 717846328#1 717846328#2 717846328#3 717846328#4 717846328#5 717846328#6 717846328#7 26129072 189294353 189294337 26128855#0 26128855#1 26128855#2 26128855#3 23528544#0 23528544#1 -264918733#1 -264918733#0"/>
    </vehicle>
    <vehicle id="4" depart="4.00">
        <route edges="189609904#1 1153445028#0 1153445028#1 819529512#0 819529512#1 189286918 23056864#0 23056864#1 189609905 189287751 23817728 23817727#0 23817727#1 23817727#2 207779978 189599782 189599773#0 189599773#1 4806288#0 4806288#1 4806288#2 4806288#3 4806288#4 4806288#5 189287753#0 189287753#1 189286898 189609919#0 189609919#1 189609918 189287749 189286908 189609920 828591428 11300725 -1154826318#1 -1154826318#0 -163710820#3 -163710820#2"/>
    </vehicle>
    <vehicle id="5" depart="5.00">
        <route edges="1180739361#0 1180739361#1 1126652256 -1126652256 -1126652254 -189294340 -29217982 29217984#0 29217984#1 189286908 189609920 828591428 11300725 291428601 22770553 186765522#0 186765522#1 189286902 189286900 189286918 23056864#0 23056864#1 27643296#0 27643296#1 163001408#0 163001408#1 163001408#2 163001408#3 163001408#4 163001408#5 27653455#1 -27643295#2 -27643295#1 -27643295#0 189294311 23528547 189294314#0 23528550#0 23528550#1 23528550#2"/>
    </vehicle>
    <vehicle id="6" depart="6.00">
        <route edges="-163596461#1 -163596461#0 410828255#3 410828255#4 410828255#0 410828255#1 410828254#0 410828254#1 410828254#2 410828254#3 410828254#4 410828253#0 410828253#1 410828253#2 410828248#0 410828248#1 410828248#2 188258533#0 188258533#1 1426601358 1153591007#0 1153591007#1 188258576#0 1185105484#0 1185105484#1 1185105484#2"/>
    </vehicle>
    <vehicle id="7" depart="7.00">
        <route edges="26129107#2 26129107#3 26129107#4 188265978 1192487319#0 1192487319#1 1192487319#2 1192487319#3 83338103#0 83338103#1 83338103#2 163702424#0 163702424#1 871498000 1153449311#0 1153449311#1 134780131#0 134780131#1 134780131#2 134780131#3 134780131#4 134780131#5 134780131#6 134780127 134780128#0 134780128#1 134780128#2 134780122 189609904#0 189609904#1 1153445028#0 1153445028#1 819529512#0 819529512#1 189286918 23056864#0 23056864#1 189609905 189287751 23817728 23817727#0 23817727#1 23817727#2 207779978 189599782 189599773#0 22756817#0 22756817#1 22756817#2 22756817#3 22756817#4 22756817#5 23777730#0"/>
    </vehicle>
    <vehicle id="8" depart="8.00">
        <route edges="1180791205#2 1180791205#3 25408799#0 25408799#1 25408799#2 25408798#1 25408803#0"/>
    </vehicle>
    <vehicle id="9" depart="9.00">
        <route edges="41439991#3 41439991#4 41439991#5 -1267532739#3 -1267532739#2 -1267532739#1 -1267532739#0 1267532737#1 1267532732 1267532734 1267532735 1267532728 56496755#0 56496755#1 538582798#0 538582798#1 538582798#2 56496821 23707814#0 23707814#1 23707814#2 538582794#0 538582794#1 410828255#4 410828255#0 410828255#1 410828254#0 410828254#1 410828254#2 410828254#3 410828254#4 410828253#0 410828253#1 410828253#2 410828251 163710823#0 163710823#1 163710823#2 163710823#3 163710823#4 163710823#5 163710823#6 291428600#0 291428600#1 163710824 328257400 189754934#0 189754934#1 189754934#2 189754934#3 189754934#4 1154811543#0 1154811543#1 1154811543#2 1154811543#3 -1154811543#3 -1154811543#2"/>
    </vehicle>
    <vehicle id="10" depart="10.00">
        <route edges="410828254#3 410828254#4 -410828254#4 -410828254#3 -410828254#2 -410828254#1 -410828254#0 410828255#2 410828255#3 -538582794#1 -538582794#0 -23707814#2 -23707814#1 -23707814#0 56496809#0 56496809#1 56496809#2 87398616#0 76095128#0 76095128#1 163596466#1 163596468#0 163596468#1 188258619#0 188258619#1 87398618#0 87398618#1 27680231"/>
    </vehicle>
    <vehicle id="11" depart="11.00">
        <route edges="186765535#0 186765535#1 186765535#2 190097576 98606802#0 98606802#1 98606802#2 98606802#3 98606802#4 98606802#5 -86493207#2"/>
    </vehicle>
    <vehicle id="12" depart="12.00">
        <route edges="86493215 344004524 344004523#0 344004523#1 186765522#0 186765522#1 189286902 75731747 1153445047#0 1153445047#1 189286906#0 189286906#1 189286906#2 189286906#3 189286906#4 163710817#0 163710817#1 760072655 163710816 76095125#3 189754932#0 189754932#1 189754933#0 189754933#1 189754933#2 189754933#3 189754933#4 189754933#5 189754933#6 189754933#7 189754933#8 188258542#0 188258542#1"/>
    </vehicle>
    <vehicle id="13" depart="13.00">
        <route edges="-25413932#1 -25413932#0 23608828#0 23608828#1 23608828#2 98606765 -186765527 -1126652257 -1126652255#2 -1126652255#1 -1126652255#0 -1126652256 -1126652254 -189294340 -29217982 29217984#0 29217984#1 189286908 189609920 828591428 11300725 291428601 22770553 186765522#0 186765522#1 189286902 189286900 189286918 23056864#0 23056864#1 27643296#0 27643296#1 163001408#0 163001408#1 163001408#2 163001408#3 163001408#4 163001408#5 27653455#1 -27643295#2 -27643295#1"/>
    </vehicle>
    <vehicle id="14" depart="14.00">
        <route edges="56496752#0 56496752#1 56496752#2 56496752#3 56496752#4 56496752#5 56496752#6 56496752#7 23684133#3 23684133#4 88375869#0 88375869#1 538582832 188258628 163596467#0 190097584 23054714 188258617 85476563#0 85476563#1 85476563#2 190097575 1321703362 85476547#0 85476547#1 85476547#2 85476547#3 539908075#0 539908075#1 539908075#2 83338112#0 83338112#1 177998371 186765550#0 186765550#1 186765550#2 186765550#3 186765550#4 188741728 550335485 188741727 23455227#0 23455227#1 23455227#2 98606802#0 98606802#1 -25413932#2 -25413932#1 -25413932#0 25413932#0 25413932#1"/>
    </vehicle>
    <vehicle id="15" depart="15.00">
        <route edges="410828254#4 -410828254#4 -410828254#3 -410828254#2 -410828254#1 -410828254#0 410828255#2 410828255#3 -538582794#1 -538582794#0 -23707814#2 -23707814#1 -23707814#0 56496809#0 56496809#1 56496809#2 87398616#0 87398616#1 190097584 23054714 188258617 85476563#0 85476563#1 85476563#2 -686802423 538362595#0 538362595#1 538362594 85476533#0 85476533#1 85476533#2 85476533#3 266216151#0 266216151#1 266216151#2 266216151#3 27710542#0 27710542#1 27710542#2 85476542#6 85476542#7 593479398#0 593479398#1 189597349#0 189597349#1 189597349#2 189597349#3 539908078#0 539908078#1 1222220483 1266835996 163498800#0 163498800#1 163498800#2 163498800#3 28499173#0 28499173#1"/>
    </vehicle>
    <vehicle id="16" depart="16.00">
        <route edges="188258593#5 383638710 1192978867 11299988#0 11299988#1 11299988#2 134780180 134780178 383638706 23684197#0 23684197#1 23684197#2 23684197#3 23684197#4 23684197#5 188258581#0 188258581#1 134780129#0 134780129#1 163702428 871498000 1153449311#0 1153449311#1 134780131#0 134780131#1 134780131#2 134780131#3 134780131#4 134780131#5 134780131#6 134780127 134780128#0 134780128#1 134780128#2 134780122 189609904#0 189609904#1 1153445028#0 1153445028#1 819529512#0 819529512#1 189286918 23056864#0 23056864#1 189609905 189287751 23817728 23817727#0 23817727#1 23817727#2"/>
    </vehicle>
    <vehicle id="17" depart="17.00">
        <route edges="538582794#0 538582794#1 410828255#4 410828255#0 410828255#1 410828254#0 410828254#1 410828254#2 410828254#3 410828254#4 410828253#0 410828253#1 410828253#2 410828251 163710823#0 163710823#1 163710823#2 163710823#3 163710823#4 163710823#5 163710818#0 163710818#1 163710818#2 163710818#3 163710818#4 27710653 27710659#0 27710659#1 717846327#0 717846327#1 1153448905 717846328#0 717846328#1 717846328#2 717846328#3 717846328#4 717846328#5 717846328#6 717846328#7 26129072 189294353 189294337 189609911 189609909 26129084#0 26129084#1 26129084#2"/>
    </vehicle>
    <vehicle id="18" depart="18.00">
        <route edges="593479398#1 189597349#0 189597349#1 189597349#2 189597349#3 539908078#0 539908078#1 1222220483 1266835996 163498800#0 163498800#1 163498800#2 163498800#3 163498800#4 85476546 189597337#0 189597337#1 83338110 83338112#0 83338112#1 177998371 186765550#0 186765550#1 186765550#2 186765550#3 186765550#4 188741728 98606773#0 98606773#1 -186765526#1 -186765526#0 -186765527 98606767 186765543#0 186765543#1 186765543#2 186765543#3 186765543#4 186765543#5 25408799#2 25408798#1"/>
    </vehicle>
    <vehicle id="19" depart="19.00">
        <route edges="27643279#3 27643279#4 189294320 189294311 23528549#0 23528549#1 23528549#2 23528549#3 23528549#4 819529511 1153445047#1 189286906#0 189286906#1 189286906#2 189286906#3 189286906#4 159381332 159381333#0 159381333#1 159381333#2 159381333#3 159381333#4 159381333#5 159381333#6 159381333#7 1426601359 188258588#0 188258588#1 163702425 188258561#0 188258561#1 208140904#0 208140904#1 188258573#0 188258573#1 188258573#2 188258573#3 188258573#4 188258573#5 83338125 774961998#0 774961998#1 774961998#2 83338133#0 83338133#1 83338133#2 83338133#3 23051889#0 23051889#1 23051889#2 23051889#3 23051889#4 -23051889#4"/>
    </vehicle>
    <vehicle id="20" depart="20.00">
        <route edges="1192487319#2 1192487319#3 83338103#0 83338103#1 83338103#2 163702424#0 163702424#1 188258555#0 188258555#1 208140905#0 208140905#1 410828249#0 410828249#1 410828249#2 410828249#3 410828247 1192487328 188258542#0 188258542#1 188258549#0 188258549#1 190097573#0 190097573#1 188258538#0 188258538#1 538362599 101360287 538362595#0 538362595#1 538362594 85476533#0 85476533#1 85476533#2 85476533#3 266216151#0 266216151#1 266216151#2 266216151#3 27710542#0 27710542#1 27710542#2 85476542#6 85476542#7 163716639#0 163716639#1 163716639#2"/>
    </vehicle>
    <vehicle id="21" depart="21.00">
        <route edges="-24650879#1 -24650879#0 -46896248#4 -46896248#3 -46896248#2 -46896248#1 -46896248#0 234902051#1 23528545#0 23528545#1 23528545#2 23528545#3 23528545#4 189609909 189294312 189294331 26129161#0 26129161#1 26129161#2 26129161#3 26129161#4 26129161#5 26129161#6 26129161#7 27710537#0 27710537#1 134780128#0 134780128#1 134780128#2 134780122 189609904#0 189609904#1 1153445028#0 1153445028#1 819529512#0 819529512#1 189286918 23056864#0 23056864#1 189609905 189287751 23817728 23817727#0 23817727#1 23817727#2 207779978 11300966#0 11300966#1 11300966#2 11300966#3 11300966#4 24962008#3 22734381#0 22734381#1 22734381#2 25408773 1363860301#0"/>
    </vehicle>
    <vehicle id="22" depart="22.00">
        <route edges="-27275195#6 -27275195#5 -27275195#4 27275195#4 27275195#5 27275195#6 27275195#7 33084815#4 1222220477#0 1222220477#1 27710577#0 27710577#1 27710577#2 27710577#3 27710577#4 27710559#0 27710559#1 85476558#0 85476558#1 85476558#2 85476558#3 85476558#4 189514597 163498800#0 163498800#1 163498800#2 163498800#3 28499173#0 28499173#1 28499173#2 28499173#3 85476569#3 85476569#4 85476569#5 85476569#6 274799315#0 274799315#1 274799315#2 274799315#3 274799315#4 538362597#0 538362597#1 686802423 101360285#0 101360285#1 274796193 23020480 76095157 11300554#3 188258603 188258604 188258596#0 188258596#1 188258596#2 188258596#3 163710822#0 163710822#1"/>
    </vehicle>
    <vehicle id="23" depart="23.00">
        <route edges="26128855#2 26128855#3 23528544#0 23528544#1 234902051#0 234902051#1 23528545#0 23528545#1 23528545#2 23528545#3 23528545#4 189609909 189294312 189294331 26129161#0 26129161#1 26129161#2 26129161#3 26129161#4 26129161#5 26129161#6 26129161#7 27710537#0 27710537#1 134780128#0 134780128#1 134780128#2 134780122 189609904#0 189609904#1 1153445028#0 1153445028#1 819529511 1153445047#1 189286906#0 189286906#1"/>
    </vehicle>
    <vehicle id="24" depart="24.00">
        <route edges="188258573#3 188258573#4 188258573#5 26129185#0 26129185#1 26129185#2 26129185#3 26129185#4 23027503#3 23027503#4 23027503#5 23027503#0 23027503#1 1153591430 23194229#0 23194229#1 23194229#2 23194229#3 766699981 83338136 1192487315 1192487319#0 1192487319#1 1192487319#2 1192487319#3 83338103#0 83338103#1 83338103#2 163702424#0 163702424#1 871498000 99206408 188258588#0 188258588#1 163702425 1426601358 1153591007#0 1153591007#1 188258576#0 188258576#1 188258576#2 1198484288#0 1198484288#1"/>
    </vehicle>
    <vehicle id="25" depart="25.00">
        <route edges="26129107#1 26129107#2 26129107#3 26129107#4 188265978 1192487319#0 1192487319#1 1192487319#2 1192487319#3 83338103#0 83338103#1 83338103#2 163702424#0 163702424#1 188258555#0 188258555#1 208140905#0 208140905#1 410828249#0 410828249#1 410828249#2 410828249#3 163710823#0 163710823#1 163710823#2 163710823#3 163710823#4 163710823#5 163710823#6 291428600#0 291428600#1 163710824 328257400 189754934#0 189754934#1 189754934#2 189754934#3 189754934#4 1154811543#0 1154811543#1 1154811543#2 1154811543#3 163710820#0 163710820#1 163710820#2 163710820#3 1154826318#0 1154826318#1 291428601 189286907#0 189286907#1 189286898 189609919#0 189609919#1 189609918 29217983#0 29217983#1 29217982 1180739102#0 1180739102#1 25413950#0 25413950#1 25413950#2 25413950#3 25413950#4 25413950#5 25413950#6 25413950#7 25413950#8"/>
    </vehicle>
    <vehicle id="26" depart="26.00">
        <route edges="-86493207#1 -86493207#0 -1180791205#3 -1180791205#2 -1180791205#1 -1180791205#0 86493194#0 86493194#1 189609918 29217983#0 29217983#1 29217982 189294340 1126652254 1126652256 1126652255#0 1126652255#1 1126652255#2 1126652257 186765527 186765526#0 186765526#1 98606758 188741727 188741726#0 188741726#1 188741722#0 188741722#1 1321965690 188741733#0 188741733#1 18962865#0 18962865#1 18962865#2 18962865#3 18962865#4 18962865#5 189609917 23027501 85476565#0 85476565#1 85476565#2 85476565#3 189514597 163498800#0 163498800#1 163498800#2 163498800#3 28499173#0 28499173#1"/>
    </vehicle>
    <vehicle id="27" depart="27.00">
        <route edges="-837666979#1 -837666979#0 -837666978 -837666977#1 -837666977#0 -837666976 -23528546#1 -23528546#0 23528542 189294327 189294325#0 189294325#1 134780159 134780160 23528546#0 23528546#1 837666976 837666977#0 837666977#1 837666978 837666979#0 837666979#1 837666979#2 94225928 -837666980#1 -837666980#0 -837666981#1 -837666981#0 -837666982 -23528550#2 -23528550#1 -23528550#0 189294314#1 189294349 189294320 27643295#0 27643295#1 27643295#2 189294334#0 189294334#1 27653456#0 27653456#1 27653456#2 27653456#3 27653456#4 27653456#5 189294350#0 189294350#1 189294350#2 189294350#3"/>
    </vehicle>
    <vehicle id="28" depart="28.00">
        <route edges="23684197#0 23684197#1 23684197#2 23684197#3 23684197#4 23684197#5 188258581#0 188258581#1 134780129#0 134780129#1 163702428 871498000 1153449311#0 1153449311#1 134780131#0 134780131#1 134780131#2 134780131#3 134780131#4 134780131#5 134780131#6 134780127 134780128#0 134780128#1 134780128#2 134780122 189609904#0 189609904#1 1153445028#0 1153445028#1 819529512#0 819529512#1 189286918 23056864#0 23056864#1 27643296#0 27643296#1 163001408#0 27643302#0 27643302#1 27643302#2 27643302#3"/>
    </vehicle>
    <vehicle id="29" depart="29.00">
        <route edges="56496746#4 23175868#0 23175868#1 23175868#2 23175868#3 -23183417#4 -23183417#3 -23183417#2 -23183417#1 -23183417#0 -48396619#0 23183429#0 23183429#1 239499899 239499896 23183415#0 23183415#1 23183650#0 23183650#1 23183650#2 23060007#0 23060007#1 815758852 188258593#0 188258593#1 188258593#2 188258593#3 188258593#4 188258593#5 383638710 1192978867 11299988#0 383638712#0 383638712#1 383638715"/>
    </vehicle>
    <vehicle id="30" depart="30.00">
        <route edges="1192487319#2 1192487319#3 83338103#0 83338103#1 83338103#2 163702424#0 163702424#1 188258555#0 188258555#1 208140905#0 208140905#1 410828249#0 410828249#1 410828249#2 410828249#3 163710823#0 163710823#1 163710823#2 163710823#3 163710823#4 163710823#5 163710823#6 291428600#0 291428600#1 163710824 328257400 189754934#0 189754934#1 189754934#2 189754934#3 189754934#4 1154811543#0 1154811543#1 1154811543#2 1154811543#3 163710820#0 163710820#1 163710820#2 163710820#3 1154826318#0 1154826318#1 291428601 189286907#0 189286907#1 189286898 189609919#0 189609919#1 189609918 189287749 189286908 189609920 828591428 11300725 -1154826318#1 -1154826318#0 -163710820#3 -163710820#2"/>
    </vehicle>
    <vehicle id="31" depart="31.00">
        <route edges="1154800528#0 1154800528#1 1154800528#2 1154800528#3 -163001408#2 -163001408#1 -163001408#0 163001413#0 163001413#1 163001413#2 189609907#0 189609907#1 189609907#2 1155030342 189287750#0 189287750#1 186765536#0 186765536#1 186765541 291428598 189287753#0 189287753#1 189286898 189609919#0 189609919#1 189609918 29217983#0 29217983#1 29217982 189294340 1126652254 1126652256 1126652255#0 1126652255#1 1126652255#2 1126652257 186765527 186765526#0 186765526#1 98606758 188741727 188741726#0 188741726#1 188741722#0 188741722#1 1321965690 188741733#0 188741733#1 18962865#0 18962865#1 18962865#2 18962865#3 18962865#4 18962865#5 23060009#0 23060009#1 85476569#0 85476569#1 85476569#2 85476569#3 85476569#4 85476569#5"/>
    </vehicle>
    <vehicle id="32" depart="32.00">
        <route edges="76095130#2 23005019#0 23005019#1 23005019#2 23005019#3 23005019#4 23060008#6 23060008#7 821838017 252690273#0 252690273#1 56496809#0 56496809#1 56496809#2 87398616#0 87398616#1 190097584 23054714 188258617 85476563#0 85476563#1 85476563#2 190097575 1321703362 85476547#0 85476547#1 85476547#2 85476547#3 539908075#0 539908075#1 539908075#2 189597345 23608882#0 23608882#1 23608882#2 23608882#3 539908077 11300725 291428601 4801499#0 4801499#1 291428597 186765532#0 186765532#1 186765532#2"/>
    </vehicle>
    <vehicle id="33" depart="33.00">
        <route edges="26129171#1 26129171#2 26129171#3 26129171#4 189294331 26129161#0 26129161#1 26129161#2 26129161#3 26129161#4 26129161#5 26129161#6 26129161#7 27710537#0 27710537#1 134780128#0 134780128#1 134780128#2 134780122 189609904#0 189609904#1 1153445028#0 1153445028#1 819529512#0 819529512#1 189286918 23056864#0 23056864#1 189609905 189287751 23817728 23817727#0 23817727#1 23817727#2 207779978 189599782 189599773#0 189599773#1 4806288#0 4806288#1 4806288#2 4806288#3 4806288#4 4806288#5 189287753#0 189287753#1 189286898 189609919#0 189609919#1 189609918 29217983#0 29217983#1 29217982 189294340 1126652254 1126652256 1126652255#0 1126652255#1 1126652255#2 1126652257 186765527 186765526#0 186765526#1 98606758 188741727 188741726#0 188741726#1 188741722#0 188741722#1 1321965690 188741733#0 188741733#1 18962865#0 18962865#1 18962865#2"/>
    </vehicle>
    <vehicle id="34" depart="34.00">
        <route edges="83338133#4 83338133#5 83338133#6 1040610801 19102668 1040610800 83338121 83338127 83338140 1192487312#0 1192487312#1 1192487312#2 1192487312#3 274796192#0 274796192#1 274796192#2 274796192#3 274796192#4 83338136 1192487315 1192487319#0 1192487319#1 1192487319#2 1192487319#3 83338103#0 83338103#1 83338103#2 163702424#0 163702424#1 188258555#0 188258555#1 208140905#0 208140905#1 410828249#0 410828249#1 410828249#2 410828249#3 410828247 1192487328 188258542#0 188258542#1 23194230#0 23194230#1 188258669 328257092 188258606 190097581 188258616#0 188258616#1 188258616#2 410818720 410818719#0 410818719#1 188258609 163596466#0 163596466#1 163596468#0 190097585 163596463 56496802#0 56496802#1 56496802#2 56496802#3 816147782#0 816147782#1 815758857 815758858#0 815758858#1 815758858#2 815758858#3 239499882 46896249#0 46896249#1 48396619#0 23183417#0 23183417#1 23183417#2 23183417#3 23183417#4 23175868#4 23175868#5 23175868#6"/>
    </vehicle>
    <vehicle id="35" depart="35.00">
        <route edges="23684197#4 23684197#5 188258581#0 188258581#1 134780129#0 134780129#1 163702428 188258555#0 188258555#1 208140905#0 208140905#1 410828249#0 410828249#1 410828249#2 410828249#3 410828247 1192487328 188258542#0 188258542#1 23194230#0 23194230#1 188258669 328257092 188258606 190097581 188258616#0 188258616#1 188258616#2 410818720 -410818718 -163596461#4 -163596461#3 -163596461#2 -163596461#1 -163596461#0 410828255#3 410828255#4 410828255#0 410828255#1 410828255#2 163596461#0 163596461#1"/>
    </vehicle>
    <vehicle id="36" depart="36.00">
        <route edges="23777730#2 539908076#0 539908076#1 4806288#4 4806288#5 189287753#0 189287753#1 189286898 189609919#0 189609919#1 189609918 189287749 189286908 189609920 828591428 11300725 291428601 4801499#0 4801499#1 291428597 186765532#0 186765532#1 186765532#2 186765532#3 11300967 207779979 207779978 11300966#0 11300966#1 11300966#2 11300966#3 11300966#4 24962008#3 83338130#4 83338130#5 83338130#6"/>
    </vehicle>
    <vehicle id="37" depart="37.00">
        <route edges="189286906#1 189286906#2 189286906#3 189286906#4 163710817#0 163710817#1 760072655 163710816 76095125#3 189754932#0 189754932#1 189754933#0 189754933#1 189754933#2 189754933#3 189754933#4 189754933#5 189754933#6 189754933#7 189754933#8 188258542#0 188258542#1 188258549#0 188258549#1 190097573#0 190097573#1 188258538#0 188258538#1 538362599 101360287 538362595#0 538362595#1 538362594 85476533#0 85476533#1 85476533#2 85476533#3 266216151#0 266216151#1 266216151#2 266216151#3 266216151#4 266216151#5 1266835984#0 1266835984#1"/>
    </vehicle>
    <vehicle id="38" depart="38.00">
        <route edges="99206459 189609906#0 189609906#1 189609903 189286902 189286900 189286918 23056864#0 23056864#1 189609905 189287751 23817728 23817727#0 23817727#1 23817727#2 207779978 189599782 189599773#0 189599773#1 4806288#0 4806288#1 4806288#2 4806288#3 4806288#4 4806288#5 189287753#0 189287753#1 189286898 189609919#0 189609919#1 189609918 29217983#0 29217983#1 29217982 189294340 1126652254 1126652256 1126652255#0 1126652255#1 1126652255#2 1126652257 186765527 186765526#0 186765526#1 98606758 188741727 188741726#0 188741726#1 188741722#0 188741722#1 1321965690 188741733#0 188741733#1 18962865#0 18962865#1 18962865#2 18962865#3 18962865#4 18962865#5 189609917 189597343 189597337#0 189597337#1 83338110 189597345 23608882#0 23608882#1 23608882#2"/>
    </vehicle>
    <vehicle id="39" depart="39.00">
        <route edges="-25408815#3 -25408815#2 -25408815#1 -25408815#0 -22756817#5 -22756817#4 -22756817#3 -22756817#2 -22756817#1 -22756817#0 189599773#1 189599779 11300967 23817698#0 23817698#1 23817726 99206459 189609906#0 189609906#1 189609903 189286902 75731747 1153445047#0 1153445047#1 189286906#0 189286906#1 189286906#2 189286906#3 189286906#4 159381332 159381333#0 159381333#1 159381333#2 159381333#3 159381333#4 159381333#5 159381333#6 159381333#7 1426601359 188258588#0 188258588#1 163702425 188258561#0 188258561#1 208140904#0 208140904#1 188258573#0 188258573#1 188258573#2 188258573#3 188258573#4 188258573#5 83338125 774961998#0 774961998#1 774961998#2 83338133#0 83338133#1 83338133#2 83338133#3 23051889#0 23051889#1 23051889#2 23051889#3 23051889#4 23051889#5 23051889#6 23051889#7 23051889#8 -23051889#8 -23051889#7 -23051889#6"/>
    </vehicle>
    <vehicle id="40" depart="40.00">
        <route edges="-27653457#3 -27653457#2 -27653457#1 -27653457#0 189294334#1 27653455#0 27653455#1 -27643295#2 -27643295#1 -27643295#0 189294311 23528547 189294314#0 23528550#0 23528550#1 23528550#2 837666982 837666981#0 837666981#1 837666980#0 837666980#1 134780168 134780170 134780173 94225818#0 94225818#1 94225818#2 94225818#3 159381334 717846327#0 717846327#1 1153448905 717846328#0 717846328#1 717846328#2 717846328#3 717846328#4 717846328#5 717846328#6 717846328#7 26129072 189294353 189294337 189609911 189609909 189294312 189294331 26129161#0 26129161#1 26129161#2 26129161#3"/>
    </vehicle>
    <vehicle id="41" depart="41.00">
        <route edges="360747038#1 82250974#0 82250974#1 1204489208 -188741725 23217818#0 23217818#1 23217818#2 23217818#3 23217818#4 23217818#5 23217818#6 23217818#7 23217818#8 23217818#9 23217818#10 85476566#0 85476566#1 188741724#0 188741724#1 188741724#2 190097578#0 190097578#1 550335486 188741731#0 188741731#1 23020745 189597347 23027500#0 23027500#1 817226609#0 817226609#1 817226609#2 266216148#0 266216148#1 266216148#2 266216148#3 538582844 538582854#0 538582854#1 101360291 101360285#0 101360285#1 274796193 23020480 188258616#0 188258616#1 188258616#2 410818720 -410818718 -163596461#4 -163596461#3 -163596461#2 -163596461#1 -163596461#0 410828255#3 410828255#4 410828255#0 76095130#0 76095130#1 76095130#2 23005019#0 23005019#1 23005019#2 23005019#3"/>
    </vehicle>
    <vehicle id="42" depart="42.00">
        <route edges="-23528546#1 -23528546#0 23528542 26129171#0 26129171#1 26129171#2 26129171#3 26129171#4 189294331 26129161#0 26129161#1 26129161#2 26129161#3 26129161#4 26129161#5 26129161#6 26129161#7 27710537#0 27710537#1 134780128#0 134780128#1 134780128#2 134780122 189609904#0 189609904#1 1153445028#0 1153445028#1 819529512#0 819529512#1 189286918 23056864#0 23056864#1 189609905 189287751 23817728 23817727#0 23817727#1 23817727#2 207779978 189599782 189599773#0 189599773#1 4806288#0 4806288#1 4806288#2 4806288#3 4806288#4 4806288#5 189287753#0 189287753#1 189286898 189609919#0 189609919#1 189609918 29217983#0 29217983#1 29217982 189294340 1126652254 1126652256 1126652255#0 1126652255#1 1126652255#2 1126652257 186765527 186765526#0 186765526#1 98606758 188741727 188741726#0 188741726#1 188741722#0 188741722#1 33084815#0 33084815#1 33084815#2 33084815#3 33084815#4 1222220477#0 1222220477#1 189295244#0 189295244#1"/>
    </vehicle>
    <vehicle id="43" depart="43.00">
        <route edges="98026439 23027503#5 23027503#0 23027503#1 1153591430 23194229#0 23194229#1 23194229#2 23194229#3 766699981 83338136 1192487315 1192487319#0 1192487319#1 1192487319#2 1192487319#3 83338103#0 83338103#1 83338103#2 163702424#0 163702424#1 188258555#0 188258555#1 208140905#0 208140905#1 410828249#0 410828249#1 410828249#2 410828249#3 163710823#0 163710823#1 163710823#2 163710823#3 163710823#4 163710823#5 163710823#6 291428600#0 291428600#1 163710824 328257400 189754934#0 189754934#1 189754934#2 189754934#3 189754934#4 1154811543#0 1154811543#1 1154811543#2 1154811543#3 -1154811543#3 -1154811543#2 -1154811543#1 -1154811543#0 76095125#0"/>
    </vehicle>
    <vehicle id="44" depart="44.00">