<?xml version="1.0" encoding="UTF-8"?>

<!-- generated on 2025-10-15 16:48:50.387836 by osmWebWizard.py v1_24_0+0000-b72eb3fabc8
<configuration>
    <net-file value="C:\Users\Pedro\Sumo\2025-10-15-16-48-43\osm.net.xml.gz"/>
    <output-trip-file value="C:\Users\Pedro\Sumo\2025-10-15-16-48-43\osm.passenger.trips.xml"/>
    <route-file value="C:\Users\Pedro\Sumo\2025-10-15-16-48-43\osm.passenger.rou.xml"/>
    <prefix value="veh"/>
    <trip-attributes value="departLane=&quot;best&quot;"/>
    <fringe-start-attributes value="departSpeed=&quot;max&quot;"/>
    <vehicle-class value="passenger"/>
    <lanes value="True"/>
    <fringe-factor value="5"/>
    <allow-fringe.min-length value="1000.0"/>
    <edge-permission value="passenger"/>
    <via-edge-types value="highway.motorway,highway.motorway_link,highway.trunk_link,highway.primary_link,highway.secondary_link,highway.tertiary_link"/>
    <min-distance value="300.0"/>
    <min-distance.fringe value="10.0"/>
    <remove-loops value="True"/>
    <insertion-density value="30.0"/>
</configuration>
-->

<routes xmlns:xsi="http://www.w3.org/2001/XMLSchema-instance" xsi:noNamespaceSchemaLocation="http://sumo.dlr.de/xsd/routes_file.xsd">
    <vType id="veh_passenger" vClass="passenger"/>
    <trip id="veh0" depart="0.00" from="239499844" to="-23194259#1" departLane="best" type="veh_passenger"/>
    <trip id="veh1" depart="4.31" from="622697546#0" to="1154595373#0" departLane="best" type="veh_passenger"/>
    <trip id="veh2" depart="8.61" from="190097574#0" to="-23284216#2" departLane="best" type="veh_passenger"/>
    <trip id="veh3" depart="12.92" from="163596463" to="23187565#0" departLane="best" type="veh_passenger"/>
    <trip id="veh4" depart="17.22" from="-23005019#2" to="163710823#0" departLane="best" type="veh_passenger"/>
    <trip id="veh5" depart="21.53" from="239499857" to="23222133" departLane="best" type="veh_passenger" departSpeed="max"/>
    <trip id="veh6" depart="25.83" from="163596463" to="23684197#0" departLane="best" type="veh_passenger"/>
    <trip id="veh7" depart="30.14" from="410818721" to="288812663#1" departLane="best" type="veh_passenger"/>
    <trip id="veh8" depart="34.44" from="188258588#0" to="163596463" departLane="best" type="veh_passenger"/>
    <trip id="veh9" depart="38.75" from="76095145#0" to="188258625" departLane="best" type="veh_passenger" departSpeed="max"/>
    <trip id="veh10" depart="43.05" from="-288812663#1" to="1185105484#0" departLane="best" type="veh_passenger" departSpeed="max"/>
    <trip id="veh11" depart="47.36" from="48396619#5" to="23741172#0" departLane="best" type="veh_passenger"/>
    <trip id="veh12" depart="51.66" from="410818721-AddedOnRampEdge" to="32964874" departLane="best" type="veh_passenger"/>
    <trip id="veh13" depart="55.97" from="23194228#0" to="94688771#0" departLane="best" type="veh_passenger"/>
    <trip id="veh14" depart="60.27" from="410828254#0" to="23758276" departLane="best" type="veh_passenger"/>
    <trip id="veh15" depart="64.58" from="56496746#3" to="23684021" departLane="best" type="veh_passenger"/>
    <trip id="veh16" depart="68.88" from="26557753" to="-48396618#1" departLane="best" type="veh_passenger" departSpeed="max"/>
    <trip id="veh17" depart="73.19" from="163596466#1" to="188258593#5" departLane="best" type="veh_passenger"/>
    <trip id="veh18" depart="77.49" from="239499839" to="18921163" departLane="best" type="veh_passenger" departSpeed="max"/>
    <trip id="veh19" depart="81.80" from="163702424#0" to="815758858#0" departLane="best" type="veh_passenger" departSpeed="max"/>
    <trip id="veh20" depart="86.11" from="239499857" to="23741172#0" departLane="best" type="veh_passenger" departSpeed="max"/>
    <trip id="veh21" depart="90.41" from="-94688727" to="190097584" departLane="best" type="veh_passenger" departSpeed="max"/>
    <trip id="veh22" depart="94.72" from="48396618#1" to="410828248#0" departLane="best" type="veh_passenger"/>
    <trip id="veh23" depart="99.02" from="163596467#2" to="-23284216#5" departLane="best" type="veh_passenger"/>
    <trip id="veh24" depart="103.33" from="134780129#0" to="84975129" departLane="best" type="veh_passenger"/>
    <trip id="veh25" depart="107.63" from="239499857" to="19787376#0" departLane="best" type="veh_passenger" departSpeed="max"/>
    <trip id="veh26" depart="111.94" from="622697554" to="23060293#0" departLane="best" type="veh_passenger"/>
    <trip id="veh27" depart="116.24" from="163702424#0" to="188258538" departLane="best" type="veh_passenger" departSpeed="max"/>
    <trip id="veh28" depart="120.55" from="23684133#0" to="188258569#0" departLane="best" type="veh_passenger" departSpeed="max"/>
    <trip id="veh29" depart="124.85" from="23684133#2" to="622697555#0" departLane="best" type="veh_passenger"/>
    <trip id="veh30" depart="129.16" from="189754933#0" to="170742379" departLane="best" type="veh_passenger" departSpeed="max"/>
    <trip id="veh31" depart="133.46" from="88375869#0" to="23194156" departLane="best" type="veh_passenger"/>
    <trip id="veh32" depart="137.77" from="-288812663#0" to="-48396618#4" departLane="best" type="veh_passenger"/>
    <trip id="veh33" depart="142.07" from="383638714" to="208140904#0" departLane="best" type="veh_passenger"/>
    <trip id="veh34" depart="146.38" from="88375869#0" to="23194259#2" departLane="best" type="veh_passenger"/>
    <trip id="veh35" depart="150.68" from="26160020#0" to="23222133" departLane="best" type="veh_passenger" departSpeed="max"/>
    <trip id="veh36" depart="154.99" from="-410828254#3" to="22734465#0" departLane="best" type="veh_passenger"/>
    <trip id="veh37" depart="159.30" from="22734465#0" to="87398618#0" departLane="best" type="veh_passenger"/>
    <trip id="veh38" depart="163.60" from="56496802#1" to="188258569#0" departLane="best" type="veh_passenger"/>
    <trip id="veh39" depart="167.91" from="23175868#0" to="163702428" departLane="best" type="veh_passenger"/>
    <trip id="veh40" depart="172.21" from="239499834" to="163596461#0" departLane="best" type="veh_passenger"/>
    <trip id="veh41" depart="176.52" from="-1185104308" to="188258617" departLane="best" type="veh_passenger"/>
    <trip id="veh42" depart="180.82" from="-1210541714" to="815758856" departLane="best" type="veh_passenger" departSpeed="max"/>
    <trip id="veh43" depart="185.13" from="56496802#1" to="56496746#0" departLane="best" type="veh_passenger"/>
    <trip id="veh44" depart="189.43" from="170742357" to="-538582798#2" departLane="best" type="veh_passenger" departSpeed="max"/>
    <trip id="veh45" depart="193.74" from="56496802#1" to="871498000" departLane="best" type="veh_passenger"/>
    <trip id="veh46" depart="198.04" from="32964885" to="134780129#0" departLane="best" type="veh_passenger" departSpeed="max"/>
    <trip id="veh47" depart="202.35" from="23005184" to="23222133" departLane="best" type="veh_passenger" departSpeed="max"/>
    <trip id="veh48" depart="206.65" from="163702424#0" to="622697546#0" departLane="best" type="veh_passenger" departSpeed="max"/>
    <trip id="veh49" depart="210.96" from="190097574#0" to="170742379" departLane="best" type="veh_passenger"/>
    <trip id="veh50" depart="215.26" from="23194260#0" to="32964874" departLane="best" type="veh_passenger"/>
    <trip id="veh51" depart="219.57" from="1198484303#0" to="188258617" departLane="best" type="veh_passenger"/>
    <trip id="veh52" depart="223.87" from="88375869#0" to="239741954" departLane="best" type="veh_passenger"/>
    <trip id="veh53" depart="228.18" from="-41439991#4" to="188258538" departLane="best" type="veh_passenger" departSpeed="max"/>
    <trip id="veh54" depart="232.48" from="163596467#2" to="622697558#0" departLane="best" type="veh_passenger"/>
    <trip id="veh55" depart="236.79" from="56496746#0" to="11300554#0" departLane="best" type="veh_passenger"/>
    <trip id="veh56" depart="241.10" from="76095130#2" to="23528553" departLane="best" type="veh_passenger"/>
    <trip id="veh57" depart="245.40" from="23005184" to="410828252#0" departLane="best" type="veh_passenger" departSpeed="max"/>
    <trip id="veh58" depart="249.71" from="410818721-AddedOnRampEdge" to="163710818" departLane="best" type="veh_passenger"/>
    <trip id="veh59" depart="254.01" from="-288812663#1" to="22663287" departLane="best" type="veh_passenger" departSpeed="max"/>
    <trip id="veh60" depart="258.32" from="190097574#0" to="23175868#3" departLane="best" type="veh_passenger"/>
    <trip id="veh61" depart="262.62" from="189754933#0" to="188258628" departLane="best" type="veh_passenger" departSpeed="max"/>
    <trip id="veh62" depart="266.93" from="56496746#3" to="188258542#0" departLane="best" type="veh_passenger"/>
    <trip id="veh63" depart="271.23" from="1153591007#0" to="23060007#0" departLane="best" type="veh_passenger"/>
    <trip id="veh64" depart="275.54" from="190097574#0" to="188258590" departLane="best" type="veh_passenger"/>
    <trip id="veh65" depart="279.84" from="163702424#0" to="76095157" departLane="best" type="veh_passenger" departSpeed="max"/>
    <trip id="veh66" depart="284.15" from="208140905#0" to="56496802#1" departLane="best" type="veh_passenger"/>
    <trip id="veh67" depart="288.45" from="23684021" to="-48396619#5" departLane="best" type="veh_passenger"/>
    <trip id="veh68" depart="292.76" from="98026834" to="56496749" departLane="best" type="veh_passenger"/>
    <trip id="veh69" depart="297.06" from="48396619#5" to="163596468#0" departLane="best" type="veh_passenger"/>
    <trip id="veh70" depart="301.37" from="23060007#0" to="170742379" departLane="best" type="veh_passenger"/>
    <trip id="veh71" depart="305.67" from="189754933#0" to="-538582798#2" departLane="best" type="veh_passenger" departSpeed="max"/>
    <trip id="veh72" depart="309.98" from="18920703#1" to="98026721" departLane="best" type="veh_passenger"/>
    <trip id="veh73" depart="314.29" from="22734465#1" to="208140904#0" departLane="best" type="veh_passenger"/>
    <trip id="veh74" depart="318.59" from="76095145#0" to="99206404" departLane="best" type="veh_passenger" departSpeed="max"/>
    <trip id="veh75" depart="322.90" from="23684133#0" to="32964874" departLane="best" type="veh_passenger" departSpeed="max"/>
    <trip id="veh76" depart="327.20" from="-56496755#1" to="188258596#0" departLane="best" type="veh_passenger"/>
    <trip id="veh77" depart="331.51" from="815758857" to="23684021" departLane="best" type="veh_passenger"/>
    <trip id="veh78" depart="335.81" from="23284216#0" to="383638711" departLane="best" type="veh_passenger"/>
    <trip id="veh79" depart="340.12" from="-23758276" to="23684133#2" departLane="best" type="veh_passenger" departSpeed="max"/>
    <trip id="veh80" depart="344.42" from="23183417#0" to="56496802#0" departLane="best" type="veh_passenger"/>
    <trip id="veh81" depart="348.73" from="-622697549#3" to="88375869#0" departLane="best" type="veh_passenger"/>
    <trip id="veh82" depart="353.03" from="622697546#0" to="188258538" departLane="best" type="veh_passenger"/>
    <trip id="veh83" depart="357.34" from="23707814#0" to="23758276" departLane="best" type="veh_passenger"/>
    <trip id="veh84" depart="361.64" from="190097573#0" to="23684133#2" departLane="best" type="veh_passenger"/>
    <trip id="veh85" depart="365.95" from="1267532728" to="32964790" departLane="best" type="veh_passenger"/>
    <trip id="veh86" depart="370.25" from="252690273#0" to="188258609" departLane="best" type="veh_passenger"/>
    <trip id="veh87" depart="374.56" from="188258542#0" to="383638712" departLane="best" type="veh_passenger"/>
    <trip id="veh88" depart="378.86" from="98026834" to="99206404" departLane="best" type="veh_passenger"/>
    <trip id="veh89" depart="383.17" from="163702424#0" to="815758857" departLane="best" type="veh_passenger" departSpeed="max"/>
    <trip id="veh90" depart="387.47" from="56496809#0" to="622697546#1" departLane="best" type="veh_passenger"/>
    <trip id="veh91" depart="391.78" from="41439991#0" to="288812663#1" departLane="best" type="veh_passenger"/>
    <trip id="veh92" depart="396.09" from="239499835" to="98026721" departLane="best" type="veh_passenger"/>
    <trip id="veh93" depart="400.39" from="410828249#0" to="188258609" departLane="best" type="veh_passenger"/>
    <trip id="veh94" depart="404.70" from="239499892" to="816147782#0" departLane="best" type="veh_passenger"/>
    <trip id="veh95" depart="409.00" from="-48396618#7" to="1210541714" departLane="best" type="veh_passenger" departSpeed="max"/>
    <trip id="veh96" depart="413.31" from="163710822" to="23741172#0" departLane="best" type="veh_passenger" departSpeed="max"/>
    <trip id="veh97" depart="417.61" from="273691556" to="170742302#0" departLane="best" type="veh_passenger" departSpeed="max"/>
    <trip id="veh98" depart="421.92" from="239499839" to="188258569#0" departLane="best" type="veh_passenger" departSpeed="max"/>
    <trip id="veh99" depart="426.22" from="23060008#0" to="622697558#0" departLane="best" type="veh_passenger"/>
    <trip id="veh100" depart="430.53" from="190097574#0" to="188258588#0" departLane="best" type="veh_passenger"/>
    <trip id="veh101" depart="434.83" from="-1185105484#1" to="410818721-AddedOnRampEdge" departLane="best" type="veh_passenger" departSpeed="max"/>
    <trip id="veh102" depart="439.14" from="239499844" to="188258569#0" departLane="best" type="veh_passenger"/>
    <trip id="veh103" depart="443.44" from="274796193" to="23284216#1" departLane="best" type="veh_passenger" departSpeed="max"/>
    <trip id="veh104" depart="447.75" from="622697549#4" to="23222133" departLane="best" type="veh_passenger"/>
    <trip id="veh105" depart="452.05" from="-538582798#2" to="134780129#0" departLane="best" type="veh_passenger"/>
    <trip id="veh106" depart="456.36" from="170742357" to="622697557" departLane="best" type="veh_passenger" departSpeed="max"/>
    <trip id="veh107" depart="460.66" from="383638715" to="56496802#1" departLane="best" type="veh_passenger"/>
    <trip id="veh108" depart="464.97" from="622697549#0" to="170742302#0" departLane="best" type="veh_passenger"/>
    <trip id="veh109" depart="469.28" from="189754933#0" to="23758276" departLane="best" type="veh_passenger" departSpeed="max"/>
    <trip id="veh110" depart="473.58" from="56496752#0" to="94688771#0" departLane="best" type="veh_passenger"/>
    <trip id="veh111" depart="477.89" from="410828248#0" to="622697549#0" departLane="best" type="veh_passenger"/>
    <trip id="veh112" depart="482.19" from="-163596461#1" to="383638706" departLane="best" type="veh_passenger"/>
    <trip id="veh113" depart="486.50" from="188258576#1" to="815758856" departLane="best" type="veh_passenger"/>
    <trip id="veh114" depart="490.80" from="163596466#0" to="48396618#5" departLane="best" type="veh_passenger"/>
    <trip id="veh115" depart="495.11" from="23005183#0" to="188258617" departLane="best" type="veh_passenger"/>
    <trip id="veh116" depart="499.41" from="383638715" to="188258538" departLane="best" type="veh_passenger"/>
    <trip id="veh117" depart="503.72" from="-1267532739#1" to="163710818" departLane="best" type="veh_passenger"/>
    <trip id="veh118" depart="508.02" from="84975129" to="23222133" departLane="best" type="veh_passenger"/>
    <trip id="veh119" depart="512.33" from="815758857" to="163702428" departLane="best" type="veh_passenger"/>
    <trip id="veh120" depart="516.63" from="815758852" to="188258569#0" departLane="best" type="veh_passenger"/>
    <trip id="veh121" depart="520.94" from="-32964790" to="22734465#0" departLane="best" type="veh_passenger" departSpeed="max"/>
    <trip id="veh122" depart="525.24" from="239499834" to="23194158" departLane="best" type="veh_passenger"/>
    <trip id="veh123" depart="529.55" from="18920771#0" to="23684021" departLane="best" type="veh_passenger"/>
    <trip id="veh124" depart="533.85" from="163702424#0" to="32964790" departLane="best" type="veh_passenger" departSpeed="max"/>
    <trip id="veh125" depart="538.16" from="23194259#0" to="32964874" departLane="best" type="veh_passenger"/>
    <trip id="veh126" depart="542.46" from="188258625" to="1064511649" departLane="best" type="veh_passenger"/>
    <trip id="veh127" depart="546.77" from="188258542#0" to="56496755#0" departLane="best" type="veh_passenger"/>
    <trip id="veh128" depart="551.08" from="273691556" to="188258609" departLane="best" type="veh_passenger" departSpeed="max"/>
    <trip id="veh129" depart="555.38" from="170742357" to="208140904#0" departLane="best" type="veh_passenger" departSpeed="max"/>
    <trip id="veh130" depart="559.69" from="-48396618#0" to="208140904#0" departLane="best" type="veh_passenger"/>
    <trip id="veh131" depart="563.99" from="622697549#4" to="23758276" departLane="best" type="veh_passenger"/>
    <trip id="veh132" depart="568.30" from="170742352" to="23222133" departLane="best" type="veh_passenger" departSpeed="max"/>
    <trip id="veh133" depart="572.60" from="239499857" to="23175868#3" departLane="best" type="veh_passenger" departSpeed="max"/>
    <trip id="veh134" depart="576.91" from="19787383#1" to="170742379" departLane="best" type="veh_passenger"/>
    <trip id="veh135" depart="581.21" from="23005184" to="622697557" departLane="best" type="veh_passenger" departSpeed="max"/>
    <trip id="veh136" depart="585.52" from="383638715" to="163596468#0" departLane="best" type="veh_passenger"/>
    <trip id="veh137" depart="589.82" from="-288812662" to="23194159#1" departLane="best" type="veh_passenger" departSpeed="max"/>
    <trip id="veh138" depart="594.13" from="239499839" to="188258619#0" departLane="best" type="veh_passenger" departSpeed="max"/>
    <trip id="veh139" depart="598.43" from="410828249#0" to="383638712" departLane="best" type="veh_passenger"/>
    <trip id="veh140" depart="602.74" from="252690273#0" to="188258538" departLane="best" type="veh_passenger"/>
    <trip id="veh141" depart="607.04" from="1198484288#0" to="-23194259#1" departLane="best" type="veh_passenger"/>
    <trip id="veh142" depart="611.35" from="163702424#0" to="23175868#3" departLane="best" type="veh_passenger" departSpeed="max"/>
    <trip id="veh143" depart="615.65" from="538582798#0" to="11300554#3" departLane="best" type="veh_passenger"/>
    <trip id="veh144" depart="619.96" from="189754933#1" to="239499835" departLane="best" type="veh_passenger"/>
    <trip id="veh145" depart="624.27" from="23060008#5" to="188258538" departLane="best" type="veh_passenger"/>
    <trip id="veh146" depart="628.57" from="239499857" to="-163596461#1" departLane="best" type="veh_passenger" departSpeed="max"/>
    <trip id="veh147" depart="632.88" from="288812663#0" to="410818721-AddedOnRampEdge" departLane="best" type="veh_passenger"/>
    <trip id="veh148" depart="637.18" from="-32964790" to="208140905#0" departLane="best" type="veh_passenger" departSpeed="max"/>
    <trip id="veh149" depart="641.49" from="-94688771#1" to="88375869#0" departLane="best" type="veh_passenger" departSpeed="max"/>
    <trip id="veh150" depart="645.79" from="163702424#0" to="56496755#0" departLane="best" type="veh_passenger" departSpeed="max"/>
    <trip id="veh151" depart="650.10" from="22734465#1" to="46896249" departLane="best" type="veh_passenger"/>
    <trip id="veh152" depart="654.40" from="239741953" to="98026721" departLane="best" type="veh_passenger"/>
    <trip id="veh153" depart="658.71" from="622697546#0" to="23757792#0" departLane="best" type="veh_passenger"/>
    <trip id="veh154" depart="663.01" from="273691556" to="23187565#0" departLane="best" type="veh_passenger" departSpeed="max"/>
    <trip id="veh155" depart="667.32" from="410828254#0" to="23222133" departLane="best" type="veh_passenger"/>
    <trip id="veh156" depart="671.62" from="622697546#1" to="383638709" departLane="best" type="veh_passenger"/>
    <trip id="veh157" depart="675.93" from="23005184" to="188258561#0" departLane="best" type="veh_passenger" departSpeed="max"/>
    <trip id="veh158" depart="680.23" from="32964885" to="23194259#2" departLane="best" type="veh_passenger" departSpeed="max"/>
    <trip id="veh159" depart="684.54" from="239499839" to="188258588#0" departLane="best" type="veh_passenger" departSpeed="max"/>
    <trip id="veh160" depart="688.84" from="163710822" to="188258617" departLane="best" type="veh_passenger" departSpeed="max"/>
    <trip id="veh161" depart="693.15" from="23194260#0" to="134780131" departLane="best" type="veh_passenger"/>
    <trip id="veh162" depart="697.45" from="163596468#0" to="288812662" departLane="best" type="veh_passenger"/>
    <trip id="veh163" depart="701.76" from="26557753" to="-622697549#0" departLane="best" type="veh_passenger" departSpeed="max"/>
    <trip id="veh164" depart="706.07" from="189754933#0" to="23222133" departLane="best" type="veh_passenger" departSpeed="max"/>
    <trip id="veh165" depart="710.37" from="189754933#1" to="170742302#0" departLane="best" type="veh_passenger"/>
    <trip id="veh166" depart="714.68" from="190097573#0" to="622697558#0" departLane="best" type="veh_passenger"/>
    <trip id="veh167" depart="718.98" from="23684133#2" to="288812662" departLane="best" type="veh_passenger"/>
    <trip id="veh168" depart="723.29" from="56496746#0" to="410818720" departLane="best" type="veh_passenger"/>
    <trip id="veh169" depart="727.59" from="18920703#1" to="-163596461#1" departLane="best" type="veh_passenger"/>
    <trip id="veh170" depart="731.90" from="190097573#0" to="383638711" departLane="best" type="veh_passenger"/>
    <trip id="veh171" depart="736.20" from="23284216#6" to="23731111" departLane="best" type="veh_passenger"/>
    <trip id="veh172" depart="740.51" from="163596463" to="170742379" departLane="best" type="veh_passenger"/>
    <trip id="veh173" depart="744.81" from="19787383#0" to="-23284216#0" departLane="best" type="veh_passenger" departSpeed="max"/>
    <trip id="veh174" depart="749.12" from="189754933#0" to="163596467#2" departLane="best" type="veh_passenger" departSpeed="max"/>
    <trip id="veh175" depart="753.42" from="23005184" to="134780129#0" departLane="best" type="veh_passenger" departSpeed="max"/>
    <trip id="veh176" depart="757.73" from="18921163" to="23528553" departLane="best" type="veh_passenger"/>
    <trip id="veh177" depart="762.03" from="-23005019#2" to="239499892" departLane="best" type="veh_passenger"/>
    <trip id="veh178" depart="766.34" from="-48396618#7" to="23175868#0" departLane="best" type="veh_passenger" departSpeed="max"/>
    <trip id="veh179" depart="770.64" from="-23284216#5" to="190097584" departLane="best" type="veh_passenger"/>
    <trip id="veh180" depart="774.95" from="134780129#0" to="188258617" departLane="best" type="veh_passenger"/>
    <trip id="veh181" depart="779.26" from="32964885" to="190097584" departLane="best" type="veh_passenger" departSpeed="max"/>
    <trip id="veh182" depart="783.56" from="163702424#0" to="1154595373#0" departLane="best" type="veh_passenger" departSpeed="max"/>
    <trip id="veh183" depart="787.87" from="-1210541714" to="23222133" departLane="best" type="veh_passenger" departSpeed="max"/>
    <trip id="veh184" depart="792.17" from="98026834" to="18920703#0" departLane="best" type="veh_passenger"/>
    <trip id="veh185" depart="796.48" from="239499857" to="410828249#0" departLane="best" type="veh_passenger" departSpeed="max"/>
    <trip id="veh186" depart="800.78" from="239499857" to="383638713" departLane="best" type="veh_passenger" departSpeed="max"/>
    <trip id="veh187" depart="805.09" from="76095145#0" to="163710823#0" departLane="best" type="veh_passenger" departSpeed="max"/>
    <trip id="veh188" depart="809.39" from="23684133#0" to="170742379" departLane="best" type="veh_passenger" departSpeed="max"/>
    <trip id="veh189" depart="813.70" from="26557753" to="410818720" departLane="best" type="veh_passenger" departSpeed="max"/>
    <trip id="veh190" depart="818.00" from="-94688727" to="23741172#0" departLane="best" type="veh_passenger" departSpeed="max"/>
    <trip id="veh191" depart="822.31" from="274796193" to="1210541714" departLane="best" type="veh_passenger" departSpeed="max"/>
    <trip id="veh192" depart="826.61" from="410828249#0" to="94688727" departLane="best" type="veh_passenger"/>
    <trip id="veh193" depart="830.92" from="-32964790" to="-23194259#1" departLane="best" type="veh_passenger" departSpeed="max"/>
    <trip id="veh194" depart="835.22" from="273691556" to="1153449311#0" departLane="best" type="veh_passenger" departSpeed="max"/>
    <trip id="veh195" depart="839.53" from="26160020#0" to="239499834" departLane="best" type="veh_passenger" departSpeed="max"/>
    <trip id="veh196" depart="843.83" from="-32964790" to="410818721-AddedOnRampEdge" departLane="best" type="veh_passenger" departSpeed="max"/>
    <trip id="veh197" depart="848.14" from="538582798#0" to="23731110" departLane="best" type="veh_passenger"/>
    <trip id="veh198" depart="852.44" from="-41439991#4" to="98026721" departLane="best" type="veh_passenger" departSpeed="max"/>
    <trip id="veh199" depart="856.75" from="383638710" to="18920703#0" departLane="best" type="veh_passenger"/>
    <trip id="veh200" depart="861.06" from="23183426" to="188258628" departLane="best" type="veh_passenger"/>
    <trip id="veh201" depart="865.36" from="-32964790" to="88375869#0" departLane="best" type="veh_passenger" departSpeed="max"/>
    <trip id="veh202" depart="869.67" from="239499839" to="56496746#0" departLane="best" type="veh_passenger" departSpeed="max"/>
    <trip id="veh203" depart="873.97" from="26557753" to="22734465#1" departLane="best" type="veh_passenger" departSpeed="max"/>
    <trip id="veh204" depart="878.28" from="274796193" to="94688727" departLane="best" type="veh_passenger" departSpeed="max"/>
    <trip id="veh205" depart="882.58" from="163702428" to="48396618#5" departLane="best" type="veh_passenger"/>
    <trip id="veh206" depart="886.89" from="19787383#0" to="32964874" departLane="best" type="veh_passenger" departSpeed="max"/>
    <trip id="veh207" depart="891.19" from="163702425" to="56496802#0" departLane="best" type="veh_passenger"/>
    <trip id="veh208" depart="895.50" from="410828254#0" to="1154595373#0" departLane="best" type="veh_passenger"/>
    <trip id="veh209" depart="899.80" from="56496809#0" to="188258538" departLane="best" type="veh_passenger"/>
    <trip id="veh210" depart="904.11" from="23005184" to="23741172#0" departLane="best" type="veh_passenger" departSpeed="max"/>
    <trip id="veh211" depart="908.41" from="538582798#0" to="163710818" departLane="best" type="veh_passenger"/>
    <trip id="veh212" depart="912.72" from="134780129#0" to="41439991#4" departLane="best" type="veh_passenger"/>
    <trip id="veh213" depart="917.02" from="188258588#0" to="622697549#0" departLane="best" type="veh_passenger"/>
    <trip id="veh214" depart="921.33" from="26557753" to="188258588#0" departLane="best" type="veh_passenger" departSpeed="max"/>
    <trip id="veh215" depart="925.63" from="-288812662" to="32964874" departLane="best" type="veh_passenger" departSpeed="max"/>
    <trip id="veh216" depart="929.94" from="26160020#0" to="239499908#0" departLane="best" type="veh_passenger" departSpeed="max"/>
    <trip id="veh217" depart="934.25" from="23060008#5" to="410828254#0" departLane="best" type="veh_passenger"/>
    <trip id="veh218" depart="938.55" from="-288812663#1" to="188258538" departLane="best" type="veh_passenger" departSpeed="max"/>
    <trip id="veh219" depart="942.86" from="26160020#0" to="188258617" departLane="best" type="veh_passenger" departSpeed="max"/>
    <trip id="veh220" depart="947.16" from="23684133#2" to="23175868#3" departLane="best" type="veh_passenger"/>
    <trip id="veh221" depart="951.47" from="23194158" to="208140905#0" departLane="best" type="veh_passenger"/>
    <trip id="veh222" depart="955.77" from="26557753" to="188258581#0" departLane="best" type="veh_passenger" departSpeed="max"/>
    <trip id="veh223" depart="960.08" from="163702424#0" to="1267532728" departLane="best" type="veh_passenger" departSpeed="max"/>
    <trip id="veh224" depart="964.38" from="1185080441#0" to="1210541714" departLane="best" type="veh_passenger"/>
    <trip id="veh225" depart="968.69" from="23194228#0" to="410818719" departLane="best" type="veh_passenger"/>
    <trip id="veh226" depart="972.99" from="816147782#0" to="23194259#2" departLane="best" type="veh_passenger"/>
    <trip id="veh227" depart="977.30" from="1185080441#0" to="188258538" departLane="best" type="veh_passenger"/>
    <trip id="veh228" depart="981.60" from="816147782#0" to="23284216#1" departLane="best" type="veh_passenger"/>
    <trip id="veh229" depart="985.91" from="26557753" to="134780129#0" departLane="best" type="veh_passenger" departSpeed="max"/>
    <trip id="veh230" depart="990.21" from="56496755#0" to="23183429" departLane="best" type="veh_passenger"/>
    <trip id="veh231" depart="994.52" from="56496802#0" to="23528553" departLane="best" type="veh_passenger"/>
    <trip id="veh232" depart="998.82" from="23005184" to="23005019#0" departLane="best" type="veh_passenger" departSpeed="max"/>
    <trip id="veh233" depart="1003.13" from="11300554#3" to="-48396619#5" departLane="best" type="veh_passenger"/>
    <trip id="veh234" depart="1007.43" from="76095141" to="23175868#3" departLane="best" type="veh_passenger" departSpeed="max"/>
    <trip id="veh235" depart="1011.74" from="410828252#0" to="19787376#0" departLane="best" type="veh_passenger"/>
    <trip id="veh236" depart="1016.05" from="32964885" to="23741172#0" departLane="best" type="veh_passenger" departSpeed="max"/>
    <trip id="veh237" depart="1020.35" from="383638713" to="188258538" departLane="best" type="veh_passenger"/>
    <trip id="veh238" depart="1024.66" from="19787383#1" to="56496802#1" departLane="best" type="veh_passenger"/>
    <trip id="veh239" depart="1028.96" from="274796193" to="871498000" departLane="best" type="veh_passenger" departSpeed="max"/>