<?xml version="1.0" encoding="UTF-8"?>

<!-- generated on 2025-10-15 16:46:30.855691 by osmWebWizard.py v1_24_0+0000-b72eb3fabc8
<configuration>
    <net-file value="C:\Users\Pedro\Sumo\2025-10-15-16-45-42\osm.net.xml.gz"/>
    <output-trip-file value="C:\Users\Pedro\Sumo\2025-10-15-16-45-42\osm.truck.trips.xml"/>
    <route-file value="C:\Users\Pedro\Sumo\2025-10-15-16-45-42\osm.truck.rou.xml"/>
    <prefix value="truck"/>
    <trip-attributes value="departLane=&quot;best&quot;"/>
    <fringe-start-attributes value="departSpeed=&quot;max&quot;"/>
    <vehicle-class value="truck"/>
    <fringe-factor value="5"/>
    <edge-permission value="truck"/>
    <via-edge-types value="highway.motorway,highway.motorway_link,highway.trunk_link,highway.primary_link,highway.secondary_link,highway.tertiary_link"/>
    <seed value="43"/>
    <min-distance value="600.0"/>
    <min-distance.fringe value="10.0"/>
    <remove-loops value="True"/>
    <insertion-density value="8.0"/>
</configuration>
-->

<routes xmlns:xsi="http://www.w3.org/2001/XMLSchema-instance" xsi:noNamespaceSchemaLocation="http://sumo.dlr.de/xsd/routes_file.xsd">
    <vType id="truck_truck" vClass="truck"/>
    <trip id="truck0" depart="0.00" from="-164353084" to="286771581" departLane="best" type="truck_truck"/>
    <trip id="truck1" depart="0.62" from="-331636791" to="23013114" departLane="best" type="truck_truck"/>
    <trip id="truck2" depart="1.24" from="27366303" to="38166130" departLane="best" type="truck_truck"/>
    <trip id="truck3" depart="1.87" from="22663251" to="23188743#1" departLane="best" type="truck_truck"/>
    <trip id="truck4" depart="2.49" from="-1314649737" to="207972210#1" departLane="best" type="truck_truck" departSpeed="max"/>
    <trip id="truck5" depart="3.11" from="170742301#0" to="538611678" departLane="best" type="truck_truck"/>
    <trip id="truck6" depart="3.73" from="23558057#0" to="33292407#0" departLane="best" type="truck_truck"/>
    <trip id="truck7" depart="4.36" from="189754934" to="-819529503" departLane="best" type="truck_truck"/>
    <trip id="truck8" depart="4.98" from="538582844" to="44952022" departLane="best" type="truck_truck"/>
    <trip id="truck9" depart="5.60" from="171034744" to="-25203839#1" departLane="best" type="truck_truck" departSpeed="max"/>
    <trip id="truck10" depart="6.22" from="23183461" to="23187894#0" departLane="best" type="truck_truck"/>
    <trip id="truck11" depart="6.84" from="360714930" to="246443649" departLane="best" type="truck_truck"/>
    <trip id="truck12" depart="7.47" from="23154403#1" to="24421284" departLane="best" type="truck_truck"/>
    <trip id="truck13" depart="8.09" from="-207895143" to="83338104" departLane="best" type="truck_truck"/>
    <trip id="truck14" depart="8.71" from="66057694" to="234891629" departLane="best" type="truck_truck"/>
    <trip id="truck15" depart="9.33" from="-257117436" to="556452686" departLane="best" type="truck_truck" departSpeed="max"/>
    <trip id="truck16" depart="9.95" from="24421294#0" to="816236376" departLane="best" type="truck_truck"/>
    <trip id="truck17" depart="10.58" from="27643295" to="-24518305#1" departLane="best" type="truck_truck"/>
    <trip id="truck18" depart="11.20" from="254626416#1" to="37882407#0" departLane="best" type="truck_truck"/>
    <trip id="truck19" depart="11.82" from="715335986" to="164250095" departLane="best" type="truck_truck" departSpeed="max"/>
    <trip id="truck20" depart="12.44" from="23257620" to="28703720" departLane="best" type="truck_truck"/>
    <trip id="truck21" depart="13.07" from="374802237" to="-171572791#1" departLane="best" type="truck_truck"/>
    <trip id="truck22" depart="13.69" from="24454759" to="183110932#2-AddedOnRampEdge" departLane="best" type="truck_truck" departSpeed="max"/>
    <trip id="truck23" depart="14.31" from="-815758845" to="252687648" departLane="best" type="truck_truck" departSpeed="max"/>
    <trip id="truck24" depart="14.93" from="901936251" to="23739521" departLane="best" type="truck_truck"/>
    <trip id="truck25" depart="15.55" from="-27364790" to="23187756" departLane="best" type="truck_truck" departSpeed="max"/>
    <trip id="truck26" depart="16.18" from="371537797" to="85476565#0" departLane="best" type="truck_truck"/>
    <trip id="truck27" depart="16.80" from="28829506" to="-164353091" departLane="best" type="truck_truck"/>
    <trip id="truck28" depart="17.42" from="883061210#0-AddedOffRampEdge" to="25203839#0" departLane="best" type="truck_truck"/>
    <trip id="truck29" depart="18.04" from="-23528543" to="-28829514" departLane="best" type="truck_truck"/>
    <trip id="truck30" depart="18.66" from="-23684137" to="274800765#0" departLane="best" type="truck_truck"/>
    <trip id="truck31" depart="19.29" from="-38074546" to="410828253#0" departLane="best" type="truck_truck"/>
    <trip id="truck32" depart="19.91" from="-26557627" to="23576646" departLane="best" type="truck_truck"/>
    <trip id="truck33" depart="20.53" from="199305545#1" to="-160486313" departLane="best" type="truck_truck"/>
    <trip id="truck34" depart="21.15" from="-106402297" to="717057927" departLane="best" type="truck_truck"/>
    <trip id="truck35" depart="21.78" from="94634397#0" to="-28662749" departLane="best" type="truck_truck"/>
    <trip id="truck36" depart="22.40" from="303577224" to="974330677" departLane="best" type="truck_truck"/>
    <trip id="truck37" depart="23.02" from="717379755" to="650579418" departLane="best" type="truck_truck"/>
    <trip id="truck38" depart="23.64" from="163001413" to="296294673#0" departLane="best" type="truck_truck"/>
    <trip id="truck39" depart="24.26" from="23143407#0" to="817842507" departLane="best" type="truck_truck"/>
    <trip id="truck40" depart="24.89" from="28422101#0" to="51155331#0" departLane="best" type="truck_truck"/>
    <trip id="truck41" depart="25.51" from="56158608" to="188258616#0" departLane="best" type="truck_truck"/>
    <trip id="truck42" depart="26.13" from="28703720" to="-24485335#1" departLane="best" type="truck_truck"/>
    <trip id="truck43" depart="26.75" from="-96690961" to="816524841#0-AddedOnRampEdge" departLane="best" type="truck_truck" departSpeed="max"/>
    <trip id="truck44" depart="27.37" from="188258581#0" to="28421406#0" departLane="best" type="truck_truck"/>
    <trip id="truck45" depart="28.00" from="239741953" to="128275312" departLane="best" type="truck_truck"/>
    <trip id="truck46" depart="28.62" from="24423376" to="74408966" departLane="best" type="truck_truck"/>
    <trip id="truck47" depart="29.24" from="1441641794" to="170742291" departLane="best" type="truck_truck"/>
    <trip id="truck48" depart="29.86" from="-815758845" to="-82909154" departLane="best" type="truck_truck" departSpeed="max"/>
    <trip id="truck49" depart="30.49" from="456633654" to="28826599" departLane="best" type="truck_truck"/>
    <trip id="truck50" depart="31.11" from="883061209#1" to="276479287" departLane="best" type="truck_truck"/>
    <trip id="truck51" depart="31.73" from="863164645" to="1125492995" departLane="best" type="truck_truck" departSpeed="max"/>
    <trip id="truck52" depart="32.35" from="-816236376" to="1074173525" departLane="best" type="truck_truck"/>
    <trip id="truck53" depart="32.97" from="176993508" to="974330677-AddedOnRampEdge" departLane="best" type="truck_truck"/>
    <trip id="truck54" depart="33.60" from="10622112" to="23005375" departLane="best" type="truck_truck"/>
    <trip id="truck55" depart="34.22" from="-207895143" to="-1338120518" departLane="best" type="truck_truck"/>
    <trip id="truck56" depart="34.84" from="23528557" to="254321345" departLane="best" type="truck_truck"/>
    <trip id="truck57" depart="35.46" from="23178339#0" to="75377285" departLane="best" type="truck_truck"/>
    <trip id="truck58" depart="36.08" from="56496752#0" to="837666980" departLane="best" type="truck_truck"/>
    <trip id="truck59" depart="36.71" from="24421140#1-AddedOnRampEdge" to="1291717574" departLane="best" type="truck_truck"/>
    <trip id="truck60" depart="37.33" from="-28829514" to="359248072" departLane="best" type="truck_truck"/>
    <trip id="truck61" depart="37.95" from="-38166033" to="-1125492977" departLane="best" type="truck_truck"/>
    <trip id="truck62" depart="38.57" from="28421417" to="-28662749" departLane="best" type="truck_truck"/>
    <trip id="truck63" depart="39.20" from="254326271" to="105883166" departLane="best" type="truck_truck"/>
    <trip id="truck64" depart="39.82" from="189597343" to="-1173733588" departLane="best" type="truck_truck"/>
    <trip id="truck65" depart="40.44" from="171034744" to="163982065" departLane="best" type="truck_truck" departSpeed="max"/>
    <trip id="truck66" depart="41.06" from="117394729" to="-30649949#0" departLane="best" type="truck_truck"/>
    <trip id="truck67" depart="41.68" from="239741953" to="28662749" departLane="best" type="truck_truck"/>
    <trip id="truck68" depart="42.31" from="-91613927" to="-166618185" departLane="best" type="truck_truck"/>
    <trip id="truck69" depart="42.93" from="1192182332#0" to="28703691" departLane="best" type="truck_truck"/>
    <trip id="truck70" depart="43.55" from="124869117" to="268049310" departLane="best" type="truck_truck"/>
    <trip id="truck71" depart="44.17" from="-23189316" to="28754665#1" departLane="best" type="truck_truck"/>
    <trip id="truck72" depart="44.79" from="-32087213" to="1125894739" departLane="best" type="truck_truck"/>
    <trip id="truck73" depart="45.42" from="303539658#0" to="23143402" departLane="best" type="truck_truck"/>
    <trip id="truck74" depart="46.04" from="26129071#0" to="1410008263#0" departLane="best" type="truck_truck"/>
    <trip id="truck75" depart="46.66" from="27364759" to="1424544620" departLane="best" type="truck_truck"/>
    <trip id="truck76" depart="47.28" from="23006373#0" to="22732904" departLane="best" type="truck_truck"/>
    <trip id="truck77" depart="47.91" from="732921773" to="32964880" departLane="best" type="truck_truck" departSpeed="max"/>
    <trip id="truck78" depart="48.53" from="23574447" to="51865599" departLane="best" type="truck_truck"/>
    <trip id="truck79" depart="49.15" from="252690273#0" to="303539649" departLane="best" type="truck_truck"/>
    <trip id="truck80" depart="49.77" from="23188743#1" to="24421261#1" departLane="best" type="truck_truck"/>
    <trip id="truck81" depart="50.39" from="1049456840" to="816147771#0" departLane="best" type="truck_truck"/>
    <trip id="truck82" depart="51.02" from="26128616" to="44952019" departLane="best" type="truck_truck"/>
    <trip id="truck83" depart="51.64" from="25203833" to="-1330756535" departLane="best" type="truck_truck"/>
    <trip id="truck84" depart="52.26" from="-264947492" to="622697558#0" departLane="best" type="truck_truck"/>
    <trip id="truck85" depart="52.88" from="28421418" to="717379753" departLane="best" type="truck_truck"/>
    <trip id="truck86" depart="53.50" from="694758410" to="1153445028#0" departLane="best" type="truck_truck"/>
    <trip id="truck87" depart="54.13" from="96736891" to="253107614#1" departLane="best" type="truck_truck"/>
    <trip id="truck88" depart="54.75" from="303544105" to="232896310#1" departLane="best" type="truck_truck" departSpeed="max"/>
    <trip id="truck89" depart="55.37" from="115560792" to="23154403#0" departLane="best" type="truck_truck"/>
    <trip id="truck90" depart="55.99" from="22724329" to="1424542162" departLane="best" type="truck_truck" departSpeed="max"/>
    <trip id="truck91" depart="56.62" from="163596468#0" to="22732219" departLane="best" type="truck_truck"/>
    <trip id="truck92" depart="57.24" from="1180739361" to="-315384694" departLane="best" type="truck_truck" departSpeed="max"/>
    <trip id="truck93" depart="57.86" from="406245358" to="176993516#1" departLane="best" type="truck_truck"/>
    <trip id="truck94" depart="58.48" from="165542255" to="377708637#1" departLane="best" type="truck_truck"/>
    <trip id="truck95" depart="59.10" from="28421406#0" to="22734042-AddedOffRampEdge" departLane="best" type="truck_truck"/>
    <trip id="truck96" depart="59.73" from="1409560901" to="383638711" departLane="best" type="truck_truck" departSpeed="max"/>
    <trip id="truck97" depart="60.35" from="1125492953" to="23013116" departLane="best" type="truck_truck"/>
    <trip id="truck98" depart="60.97" from="171034743" to="989609463" departLane="best" type="truck_truck" departSpeed="max"/>
    <trip id="truck99" depart="61.59" from="1125492994" to="24485453#0" departLane="best" type="truck_truck"/>
    <trip id="truck100" depart="62.21" from="23222133#0" to="-171034744" departLane="best" type="truck_truck"/>
    <trip id="truck101" depart="62.84" from="-786966577#2" to="654290552" departLane="best" type="truck_truck"/>
    <trip id="truck102" depart="63.46" from="37882407#0" to="106402297" departLane="best" type="truck_truck"/>
    <trip id="truck103" depart="64.08" from="-738927220" to="819529503" departLane="best" type="truck_truck" departSpeed="max"/>
    <trip id="truck104" depart="64.70" from="24454728#0" to="296294673#0" departLane="best" type="truck_truck"/>
    <trip id="truck105" depart="65.33" from="717901043" to="128275319#1" departLane="best" type="truck_truck" departSpeed="max"/>
    <trip id="truck106" depart="65.95" from="23143413" to="74408966" departLane="best" type="truck_truck"/>
    <trip id="truck107" depart="66.57" from="-815758845" to="125342846" departLane="best" type="truck_truck" departSpeed="max"/>
    <trip id="truck108" depart="67.19" from="622697560#0" to="48470420" departLane="best" type="truck_truck"/>
    <trip id="truck109" depart="67.81" from="23187871" to="-30649949#0" departLane="best" type="truck_truck"/>
    <trip id="truck110" depart="68.44" from="46836099" to="155721641" departLane="best" type="truck_truck"/>
    <trip id="truck111" depart="69.06" from="32823069#0" to="125342846" departLane="best" type="truck_truck"/>
    <trip id="truck112" depart="69.68" from="-38074546" to="28671206" departLane="best" type="truck_truck"/>
    <trip id="truck113" depart="70.30" from="183110934#0" to="186765541" departLane="best" type="truck_truck"/>
    <trip id="truck114" depart="70.92" from="19787090" to="23005375" departLane="best" type="truck_truck"/>
    <trip id="truck115" depart="71.55" from="22770577#1" to="26887939" departLane="best" type="truck_truck"/>
    <trip id="truck116" depart="72.17" from="-26278976" to="27666464" departLane="best" type="truck_truck"/>
    <trip id="truck117" depart="72.79" from="1291717564" to="27643319" departLane="best" type="truck_truck" departSpeed="max"/>
    <trip id="truck118" depart="73.41" from="-96690961" to="28703689#1" departLane="best" type="truck_truck" departSpeed="max"/>
    <trip id="truck119" depart="74.04" from="276479265" to="23684133#3" departLane="best" type="truck_truck"/>
    <trip id="truck120" depart="74.66" from="23005184" to="837666974" departLane="best" type="truck_truck"/>
    <trip id="truck121" depart="75.28" from="164371483#0" to="-23576646" departLane="best" type="truck_truck"/>
    <trip id="truck122" depart="75.90" from="155254289" to="-165446516" departLane="best" type="truck_truck"/>
    <trip id="truck123" depart="76.52" from="66640057" to="47045128" departLane="best" type="truck_truck"/>
    <trip id="truck124" depart="77.15" from="-815758845" to="26128335" departLane="best" type="truck_truck" departSpeed="max"/>
    <trip id="truck125" depart="77.77" from="-96690961" to="552823384#1-AddedOffRampEdge" departLane="best" type="truck_truck" departSpeed="max"/>
    <trip id="truck126" depart="78.39" from="189106848" to="-19786947#1" departLane="best" type="truck_truck"/>
    <trip id="truck127" depart="79.01" from="25833335" to="-23740106#1" departLane="best" type="truck_truck"/>
    <trip id="truck128" depart="79.63" from="707044888" to="816147756#1" departLane="best" type="truck_truck"/>
    <trip id="truck129" depart="80.26" from="253081136" to="1192182332#0" departLane="best" type="truck_truck"/>
    <trip id="truck130" depart="80.88" from="366463590#1" to="-163710820" departLane="best" type="truck_truck"/>
    <trip id="truck131" depart="81.50" from="-26887941" to="1441641794" departLane="best" type="truck_truck"/>
    <trip id="truck132" depart="82.12" from="-23143396" to="622693851#2" departLane="best" type="truck_truck"/>
    <trip id="truck133" depart="82.75" from="27364759" to="426315355" departLane="best" type="truck_truck"/>
    <trip id="truck134" depart="83.37" from="266632588" to="1125895478" departLane="best" type="truck_truck" departSpeed="max"/>
    <trip id="truck135" depart="83.99" from="125342846" to="253055899" departLane="best" type="truck_truck"/>
    <trip id="truck136" depart="84.61" from="38074550" to="25833339" departLane="best" type="truck_truck"/>
    <trip id="truck137" depart="85.23" from="1424542147" to="39236272#1" departLane="best" type="truck_truck"/>
    <trip id="truck138" depart="85.86" from="188265976#0" to="26128333" departLane="best" type="truck_truck"/>
    <trip id="truck139" depart="86.48" from="22664105" to="24484809" departLane="best" type="truck_truck"/>
    <trip id="truck140" depart="87.10" from="-966431229" to="22663287" departLane="best" type="truck_truck"/>
    <trip id="truck141" depart="87.72" from="46836098" to="23154398#1" departLane="best" type="truck_truck"/>
    <trip id="truck142" depart="88.34" from="-1291711687" to="441671441" departLane="best" type="truck_truck"/>
    <trip id="truck143" depart="88.97" from="-38166033" to="-1424535451#0" departLane="best" type="truck_truck"/>
    <trip id="truck144" depart="89.59" from="24421140#1" to="362852121" departLane="best" type="truck_truck"/>
    <trip id="truck145" depart="90.21" from="-27364790" to="22732219" departLane="best" type="truck_truck" departSpeed="max"/>
    <trip id="truck146" depart="90.83" from="22724305" to="-28421447" departLane="best" type="truck_truck"/>
    <trip id="truck147" depart="91.46" from="254626428" to="125342804" departLane="best" type="truck_truck" departSpeed="max"/>
    <trip id="truck148" depart="92.08" from="279164703" to="23210223" departLane="best" type="truck_truck"/>
    <trip id="truck149" depart="92.70" from="23216400#0" to="1153445028#0" departLane="best" type="truck_truck"/>
    <trip id="truck150" depart="93.32" from="331636791" to="-11309848" departLane="best" type="truck_truck"/>
    <trip id="truck151" depart="93.94" from="1410008263#0" to="-25947720" departLane="best" type="truck_truck"/>
    <trip id="truck152" depart="94.57" from="-23684137" to="-11303151" departLane="best" type="truck_truck"/>
    <trip id="truck153" depart="95.19" from="23210224" to="-23143395" departLane="best" type="truck_truck"/>
    <trip id="truck154" depart="95.81" from="-27366310" to="207972210#1" departLane="best" type="truck_truck"/>
    <trip id="truck155" depart="96.43" from="27643319" to="105883174#0" departLane="best" type="truck_truck"/>
    <trip id="truck156" depart="97.05" from="266632588" to="23817726" departLane="best" type="truck_truck" departSpeed="max"/>
    <trip id="truck157" depart="97.68" from="815392342#0" to="42945706" departLane="best" type="truck_truck"/>
    <trip id="truck158" depart="98.30" from="988642300" to="176993508" departLane="best" type="truck_truck" departSpeed="max"/>
    <trip id="truck159" depart="98.92" from="654291880" to="163710824" departLane="best" type="truck_truck"/>
    <trip id="truck160" depart="99.54" from="128275305" to="199305545#2-AddedOnRampEdge" departLane="best" type="truck_truck"/>
    <trip id="truck161" depart="100.17" from="-1338120498" to="303539648" departLane="best" type="truck_truck" departSpeed="max"/>
    <trip id="truck162" depart="100.79" from="-237867968" to="25408815#0" departLane="best" type="truck_truck"/>
    <trip id="truck163" depart="101.41" from="-207371415" to="207778902" departLane="best" type="truck_truck"/>
    <trip id="truck164" depart="102.03" from="1154811543" to="83338122#0" departLane="best" type="truck_truck"/>
    <trip id="truck165" depart="102.65" from="1330756534" to="175904067" departLane="best" type="truck_truck"/>
    <trip id="truck166" depart="103.28" from="1362569055" to="-28671295" departLane="best" type="truck_truck"/>
    <trip id="truck167" depart="103.90" from="26129332" to="1427952042" departLane="best" type="truck_truck"/>
    <trip id="truck168" depart="104.52" from="1220467896" to="163001408" departLane="best" type="truck_truck"/>
    <trip id="truck169" depart="105.14" from="164011289#0" to="38166130" departLane="best" type="truck_truck"/>
    <trip id="truck170" depart="105.76" from="1052424830" to="-28421457" departLane="best" type="truck_truck"/>
    <trip id="truck171" depart="106.39" from="154687337" to="24421170#0" departLane="best" type="truck_truck"/>
    <trip id="truck172" depart="107.01" from="128275296" to="-26557001" departLane="best" type="truck_truck"/>
    <trip id="truck173" depart="107.63" from="164353084" to="87398618#0" departLane="best" type="truck_truck"/>
    <trip id="truck174" depart="108.25" from="715332973" to="22732920#1" departLane="best" type="truck_truck"/>
    <trip id="truck175" depart="108.88" from="18962979#0" to="-816147757" departLane="best" type="truck_truck"/>
    <trip id="truck176" depart="109.50" from="27364787" to="298747820#1" departLane="best" type="truck_truck" departSpeed="max"/>
    <trip id="truck177" depart="110.12" from="1163366696" to="25833357" departLane="best" type="truck_truck"/>
    <trip id="truck178" depart="110.74" from="-257117435" to="163491608#0" departLane="best" type="truck_truck"/>
    <trip id="truck179" depart="111.36" from="1291717574" to="383638713" departLane="best" type="truck_truck"/>
    <trip id="truck180" depart="111.99" from="19786946" to="23739521" departLane="best" type="truck_truck"/>
    <trip id="truck181" depart="112.61" from="23006375" to="1266835996" departLane="best" type="truck_truck"/>
    <trip id="truck182" depart="113.23" from="46106328" to="383638713" departLane="best" type="truck_truck"/>
    <trip id="truck183" depart="113.85" from="176994381" to="189514594" departLane="best" type="truck_truck"/>
    <trip id="truck184" depart="114.47" from="815758856" to="-1291711687" departLane="best" type="truck_truck"/>
    <trip id="truck185" depart="115.10" from="33292445" to="-717901058" departLane="best" type="truck_truck"/>
    <trip id="truck186" depart="115.72" from="-837666973" to="170742302#0" departLane="best" type="truck_truck"/>
    <trip id="truck187" depart="116.34" from="254626423" to="163710823#0" departLane="best" type="truck_truck" departSpeed="max"/>
    <trip id="truck188" depart="116.96" from="23188743#0" to="23280116" departLane="best" type="truck_truck"/>
    <trip id="truck189" depart="117.59" from="806893702" to="24423373" departLane="best" type="truck_truck"/>
    <trip id="truck190" depart="118.21" from="1200862733" to="26129300#2" departLane="best" type="truck_truck"/>
    <trip id="truck191" depart="118.83" from="23610693" to="1441641792#0" departLane="best" type="truck_truck"/>
    <trip id="truck192" depart="119.45" from="298747819" to="-1125894740" departLane="best" type="truck_truck"/>
    <trip id="truck193" depart="120.07" from="974330685" to="622693851#2" departLane="best" type="truck_truck"/>
    <trip id="truck194" depart="120.70" from="-207895142" to="28829528" departLane="best" type="truck_truck"/>
    <trip id="truck195" depart="121.32" from="-28829528" to="974615748" departLane="best" type="truck_truck"/>
    <trip id="truck196" depart="121.94" from="215602759" to="32087252" departLane="best" type="truck_truck"/>
    <trip id="truck197" depart="122.56" from="1155331164#0" to="27312113" departLane="best" type="truck_truck"/>
    <trip id="truck198" depart="123.18" from="-1425631937" to="39236272#0" departLane="best" type="truck_truck"/>
    <trip id="truck199" depart="123.81" from="1180739361" to="-815392333" departLane="best" type="truck_truck" departSpeed="max"/>
    <trip id="truck200" depart="124.43" from="19787370#0" to="232052665" departLane="best" type="truck_truck"/>
    <trip id="truck201" depart="125.05" from="-180811981" to="-70729127" departLane="best" type="truck_truck"/>
    <trip id="truck202" depart="125.67" from="171572807" to="23684135" departLane="best" type="truck_truck"/>
    <trip id="truck203" depart="126.30" from="28421443" to="-31452618" departLane="best" type="truck_truck"/>
    <trip id="truck204" depart="126.92" from="4522112" to="176994380" departLane="best" type="truck_truck"/>
    <trip id="truck205" depart="127.54" from="986951109" to="183110944#0" departLane="best" type="truck_truck"/>
    <trip id="truck206" depart="128.16" from="207895141" to="176994380" departLane="best" type="truck_truck"/>
    <trip id="truck207" depart="128.78" from="-232896315#0" to="815758852" departLane="best" type="truck_truck"/>
    <trip id="truck208" depart="129.41" from="24454759" to="33292445" departLane="best" type="truck_truck" departSpeed="max"/>
    <trip id="truck209" depart="130.03" from="1291711659" to="1314649737" departLane="best" type="truck_truck"/>
    <trip id="truck210" depart="130.65" from="183110944#1-AddedOnRampEdge" to="25892366#0" departLane="best" type="truck_truck"/>
    <trip id="truck211" depart="131.27" from="22664081" to="28703689#0" departLane="best" type="truck_truck"/>
    <trip id="truck212" depart="131.89" from="98606773#0" to="24484378" departLane="best" type="truck_truck"/>
    <trip id="truck213" depart="132.52" from="39236239#0" to="846718991" departLane="best" type="truck_truck"/>
    <trip id="truck214" depart="133.14" from="90505923" to="170742298" departLane="best" type="truck_truck"/>
    <trip id="truck215" depart="133.76" from="47203425" to="28703672" departLane="best" type="truck_truck"/>
    <trip id="truck216" depart="134.38" from="-1314649737" to="44952019" departLane="best" type="truck_truck" departSpeed="max"/>
    <trip id="truck217" depart="135.01" from="715335986" to="711362213" departLane="best" type="truck_truck" departSpeed="max"/>
    <trip id="truck218" depart="135.63" from="162997697" to="303539658#0" departLane="best" type="truck_truck"/>
    <trip id="truck219" depart="136.25" from="456633655" to="22732910" departLane="best" type="truck_truck"/>
    <trip id="truck220" depart="136.87" from="260944433" to="188258573#0" departLane="best" type="truck_truck"/>
    <trip id="truck221" depart="137.49" from="807270822" to="234891634#1" departLane="best" type="truck_truck"/>
    <trip id="truck222" depart="138.12" from="1125894740" to="207895140" departLane="best" type="truck_truck"/>
    <trip id="truck223" depart="138.74" from="24424101" to="186765550#0" departLane="best" type="truck_truck"/>
    <trip id="truck224" depart="139.36" from="1442159221" to="26128616" departLane="best" type="truck_truck"/>
    <trip id="truck225" depart="139.98" from="1424348990" to="23154405" departLane="best" type="truck_truck"/>
    <trip id="truck226" depart="140.60" from="-23576634#0" to="163702428" departLane="best" type="truck_truck"/>
    <trip id="truck227" depart="141.23" from="-27364793" to="23143437" departLane="best" type="truck_truck"/>
    <trip id="truck228" depart="141.85" from="1442159220" to="187800807" departLane="best" type="truck_truck"/>
    <trip id="truck229" depart="142.47" from="-1427478032" to="974330685" departLane="best" type="truck_truck" departSpeed="max"/>
    <trip id="truck230" depart="143.09" from="1040210089" to="-1126652254" departLane="best" type="truck_truck"/>
    <trip id="truck231" depart="143.72" from="24423193" to="-163001408" departLane="best" type="truck_truck"/>
    <trip id="truck232" depart="144.34" from="238655491" to="74408966" departLane="best" type="truck_truck"/>
    <trip id="truck233" depart="144.96" from="-19786973" to="23143396" departLane="best" type="truck_truck"/>
    <trip id="truck234" depart="145.58" from="46896253" to="1173733588" departLane="best" type="truck_truck"/>
    <trip id="truck235" depart="146.20" from="-296273090#1" to="-189599781" departLane="best" type="truck_truck"/>
    <trip id="truck236" depart="146.83" from="282575408" to="359247707" departLane="best" type="truck_truck"/>
    <trip id="truck237" depart="147.45" from="189597351#0" to="170742298" departLane="best" type="truck_truck"/>
    <trip id="truck238" depart="148.07" from="96690962" to="1222220473" departLane="best" type="truck_truck"/>
    <trip id="truck239" depart="148.69" from="39236239#0-AddedOffRampEdge" to="410828254#0" departLane="best" type="truck_truck"/>
    <trip id="truck240" depart="149.31" from="22663251" to="378577672" departLane="best" type="truck_truck"/>
    <trip id="truck241" depart="149.94" from="1441641793" to="717055770" departLane="best" type="truck_truck"/>
    <trip id="truck242" depart="150.56" from="315384694" to="25833302" departLane="best" type="truck_truck" departSpeed="max"/>
    <trip id="truck243" depart="151.18" from="477239976" to="27666464" departLane="best" type="truck_truck"/>
    <trip id="truck244" depart="151.80" from="57741482" to="171225145" departLane="best" type="truck_truck"/>
    <trip id="truck245" depart="152.43" from="171034743" to="83338119" departLane="best" type="truck_truck" departSpeed="max"/>
    <trip id="truck246" depart="153.05" from="190097585" to="162997697" departLane="best" type="truck_truck"/>
    <trip id="truck247" depart="153.67" from="410828248#0" to="171034763" departLane="best" type="truck_truck"/>
    <trip id="truck248" depart="154.29" from="18924060" to="24421140#1-AddedOnRampEdge" departLane="best" type="truck_truck"/>
    <trip id="truck249" depart="154.91" from="-237861499" to="48396619" departLane="best" type="truck_truck"/>
    <trip id="truck250" depart="155.54" from="252830148#1" to="-171034743" departLane="best" type="truck_truck"/>
    <trip id="truck251" depart="156.16" from="-24485335#1" to="1424535452-AddedOnRampEdge" departLane="best" type="truck_truck"/>