<?xml version="1.0" encoding="UTF-8"?>

<!-- generated on 2025-10-15 16:46:21.905886 by osmWebWizard.py v1_24_0+0000-b72eb3fabc8
<configuration>
    <net-file value="C:\Users\Pedro\Sumo\2025-10-15-16-45-42\osm.net.xml.gz"/>
    <output-trip-file value="C:\Users\Pedro\Sumo\2025-10-15-16-45-42\osm.passenger.trips.xml"/>
    <route-file value="C:\Users\Pedro\Sumo\2025-10-15-16-45-42\osm.passenger.rou.xml"/>
    <prefix value="veh"/>
    <trip-attributes value="departLane=&quot;best&quot;"/>
    <fringe-start-attributes value="departSpeed=&quot;max&quot;"/>
    <vehicle-class value="passenger"/>
    <lanes value="True"/>
    <fringe-factor value="5"/>
    <allow-fringe.min-length value="1000.0"/>
    <edge-permission value="passenger"/>
    <via-edge-types value="highway.motorway,highway.motorway_link,highway.trunk_link,highway.primary_link,highway.secondary_link,highway.tertiary_link"/>
    <min-distance value="300.0"/>
    <min-distance.fringe value="10.0"/>
    <remove-loops value="True"/>
    <insertion-density value="12.0"/>
</configuration>
-->

<routes xmlns:xsi="http://www.w3.org/2001/XMLSchema-instance" xsi:noNamespaceSchemaLocation="http://sumo.dlr.de/xsd/routes_file.xsd">
    <vType id="veh_passenger" vClass="passenger"/>
    <trip id="veh0" depart="0.00" from="26557627" to="-1424535451#0" departLane="best" type="veh_passenger"/>
    <trip id="veh1" depart="0.41" from="1410008264" to="1266576076" departLane="best" type="veh_passenger"/>
    <trip id="veh2" depart="0.83" from="31858060" to="28421405" departLane="best" type="veh_passenger"/>
    <trip id="veh3" depart="1.24" from="711362213" to="-266632588" departLane="best" type="veh_passenger"/>
    <trip id="veh4" depart="1.66" from="207399149" to="-163001408" departLane="best" type="veh_passenger"/>
    <trip id="veh5" depart="2.07" from="1155032208" to="23280116" departLane="best" type="veh_passenger" departSpeed="max"/>
    <trip id="veh6" depart="2.49" from="-160486313" to="1153444992#1" departLane="best" type="veh_passenger"/>
    <trip id="veh7" depart="2.90" from="272008987" to="23739521" departLane="best" type="veh_passenger"/>
    <trip id="veh8" depart="3.32" from="115560792" to="24485453#1" departLane="best" type="veh_passenger"/>
    <trip id="veh9" depart="3.73" from="44952020" to="-1125894739" departLane="best" type="veh_passenger"/>
    <trip id="veh10" depart="4.15" from="444328939" to="28724024" departLane="best" type="veh_passenger"/>
    <trip id="veh11" depart="4.56" from="171034763" to="101360292#0" departLane="best" type="veh_passenger"/>
    <trip id="veh12" depart="4.98" from="858210763" to="183110940" departLane="best" type="veh_passenger"/>
    <trip id="veh13" depart="5.39" from="-27430593" to="-28662749" departLane="best" type="veh_passenger"/>
    <trip id="veh14" depart="5.81" from="538611683" to="253650087" departLane="best" type="veh_passenger"/>
    <trip id="veh15" depart="6.22" from="446490424" to="314908926" departLane="best" type="veh_passenger"/>
    <trip id="veh16" depart="6.64" from="23576646" to="90505885" departLane="best" type="veh_passenger"/>
    <trip id="veh17" depart="7.05" from="188265974" to="23817727" departLane="best" type="veh_passenger"/>
    <trip id="veh18" depart="7.47" from="47203424" to="25947720" departLane="best" type="veh_passenger"/>
    <trip id="veh19" depart="7.88" from="57741043" to="24454740" departLane="best" type="veh_passenger"/>
    <trip id="veh20" depart="8.30" from="28829465" to="-189599781" departLane="best" type="veh_passenger"/>
    <trip id="veh21" depart="8.71" from="1180739361" to="163847864" departLane="best" type="veh_passenger" departSpeed="max"/>
    <trip id="veh22" depart="9.12" from="-252687648" to="1306354250#0" departLane="best" type="veh_passenger"/>
    <trip id="veh23" depart="9.54" from="-28826593" to="163001408" departLane="best" type="veh_passenger" departSpeed="max"/>
    <trip id="veh24" depart="9.95" from="264918729#0" to="189106846" departLane="best" type="veh_passenger"/>
    <trip id="veh25" depart="10.37" from="188258573#0" to="1188955871" departLane="best" type="veh_passenger"/>
    <trip id="veh26" depart="10.78" from="135700639" to="83338111#0" departLane="best" type="veh_passenger"/>
    <trip id="veh27" depart="11.20" from="268049311" to="254626431" departLane="best" type="veh_passenger"/>
    <trip id="veh28" depart="11.61" from="1040598157" to="31487593" departLane="best" type="veh_passenger"/>
    <trip id="veh29" depart="12.03" from="-966431231" to="189597343" departLane="best" type="veh_passenger"/>
    <trip id="veh30" depart="12.44" from="986951104" to="26887939" departLane="best" type="veh_passenger"/>
    <trip id="veh31" depart="12.86" from="23763876" to="28422372" departLane="best" type="veh_passenger"/>
    <trip id="veh32" depart="13.27" from="538362597#0" to="38074546" departLane="best" type="veh_passenger"/>
    <trip id="veh33" depart="13.69" from="1180791205#0" to="-164353091" departLane="best" type="veh_passenger"/>
    <trip id="veh34" depart="14.10" from="164011284" to="1427478032" departLane="best" type="veh_passenger"/>
    <trip id="veh35" depart="14.52" from="11300554#3" to="83338133#0" departLane="best" type="veh_passenger"/>
    <trip id="veh36" depart="14.93" from="622697549#0" to="167254071" departLane="best" type="veh_passenger" departSpeed="max"/>
    <trip id="veh37" depart="15.35" from="27312113" to="19786879" departLane="best" type="veh_passenger"/>
    <trip id="veh38" depart="15.76" from="815392330#3" to="23140984" departLane="best" type="veh_passenger"/>
    <trip id="veh39" depart="16.18" from="134780138" to="134780148" departLane="best" type="veh_passenger"/>
    <trip id="veh40" depart="16.59" from="239499834" to="1424542153" departLane="best" type="veh_passenger"/>
    <trip id="veh41" depart="17.01" from="24484361#0" to="717057927" departLane="best" type="veh_passenger"/>
    <trip id="veh42" depart="17.42" from="189599783#3" to="125342827" departLane="best" type="veh_passenger"/>
    <trip id="veh43" depart="17.83" from="992237610" to="232896315#1" departLane="best" type="veh_passenger"/>
    <trip id="veh44" depart="18.25" from="-27364790" to="-19786947#4" departLane="best" type="veh_passenger" departSpeed="max"/>
    <trip id="veh45" depart="18.66" from="-31452619" to="263114282" departLane="best" type="veh_passenger"/>
    <trip id="veh46" depart="19.08" from="406247759" to="22724283" departLane="best" type="veh_passenger"/>
    <trip id="veh47" depart="19.49" from="-23284216#0" to="189597349" departLane="best" type="veh_passenger"/>
    <trip id="veh48" depart="19.91" from="99206454#0" to="23602784" departLane="best" type="veh_passenger"/>
    <trip id="veh49" depart="20.32" from="90505923" to="57741480" departLane="best" type="veh_passenger"/>
    <trip id="veh50" depart="20.74" from="-120498010" to="303577225" departLane="best" type="veh_passenger"/>
    <trip id="veh51" depart="21.15" from="282575408" to="23684137" departLane="best" type="veh_passenger"/>
    <trip id="veh52" depart="21.57" from="134780150" to="272008987" departLane="best" type="veh_passenger"/>
    <trip id="veh53" depart="21.98" from="-31487584#1" to="22986632" departLane="best" type="veh_passenger" departSpeed="max"/>
    <trip id="veh54" depart="22.40" from="22987024" to="85476569#0" departLane="best" type="veh_passenger"/>
    <trip id="veh55" depart="22.81" from="622697549#0" to="1424542161" departLane="best" type="veh_passenger" departSpeed="max"/>
    <trip id="veh56" depart="23.23" from="23183650#0" to="1062967095" departLane="best" type="veh_passenger"/>
    <trip id="veh57" depart="23.64" from="806893702" to="622693851#3" departLane="best" type="veh_passenger"/>
    <trip id="veh58" depart="24.06" from="163218491" to="268049309" departLane="best" type="veh_passenger"/>
    <trip id="veh59" depart="24.47" from="254010044" to="-992237618#1" departLane="best" type="veh_passenger"/>
    <trip id="veh60" depart="24.89" from="367485690" to="23684137" departLane="best" type="veh_passenger"/>
    <trip id="veh61" depart="25.30" from="38166093" to="23610635" departLane="best" type="veh_passenger"/>
    <trip id="veh62" depart="25.72" from="-106402265" to="176993518" departLane="best" type="veh_passenger"/>
    <trip id="veh63" depart="26.13" from="-1416117472" to="817341823#0" departLane="best" type="veh_passenger"/>
    <trip id="veh64" depart="26.54" from="622697559" to="48470420" departLane="best" type="veh_passenger"/>
    <trip id="veh65" depart="26.96" from="163710823#4" to="-23143397" departLane="best" type="veh_passenger"/>
    <trip id="veh66" depart="27.37" from="622697557" to="837666981" departLane="best" type="veh_passenger"/>
    <trip id="veh67" depart="27.79" from="-260944433" to="23175868" departLane="best" type="veh_passenger"/>
    <trip id="veh68" depart="28.20" from="-23528543" to="371537796" departLane="best" type="veh_passenger"/>
    <trip id="veh69" depart="28.62" from="375391927" to="-622693848" departLane="best" type="veh_passenger"/>
    <trip id="veh70" depart="29.03" from="23140988-AddedOffRampEdge" to="23763876" departLane="best" type="veh_passenger"/>
    <trip id="veh71" depart="29.45" from="134780142" to="622697546#0" departLane="best" type="veh_passenger"/>
    <trip id="veh72" depart="29.86" from="207779980" to="1192487319#0" departLane="best" type="veh_passenger"/>
    <trip id="veh73" depart="30.28" from="23610632" to="314908926" departLane="best" type="veh_passenger"/>
    <trip id="veh74" depart="30.69" from="1075144892" to="166293391#0" departLane="best" type="veh_passenger"/>
    <trip id="veh75" depart="31.11" from="991453252" to="27430593" departLane="best" type="veh_passenger"/>
    <trip id="veh76" depart="31.52" from="22724304" to="23528541" departLane="best" type="veh_passenger"/>
    <trip id="veh77" depart="31.94" from="-367285011" to="1266835996" departLane="best" type="veh_passenger"/>
    <trip id="veh78" depart="32.35" from="171034744" to="24485453#1" departLane="best" type="veh_passenger" departSpeed="max"/>
    <trip id="veh79" depart="32.77" from="1192182332#0" to="125342833" departLane="best" type="veh_passenger"/>
    <trip id="veh80" depart="33.18" from="-23684137" to="264947490" departLane="best" type="veh_passenger"/>
    <trip id="veh81" depart="33.60" from="1180791205#0" to="74408966" departLane="best" type="veh_passenger"/>
    <trip id="veh82" depart="34.01" from="57402820" to="-24454755#0" departLane="best" type="veh_passenger"/>
    <trip id="veh83" depart="34.43" from="125342807" to="27710569#0" departLane="best" type="veh_passenger"/>
    <trip id="veh84" depart="34.84" from="1150578938" to="-715543723" departLane="best" type="veh_passenger"/>
    <trip id="veh85" depart="35.25" from="83338101" to="24422352" departLane="best" type="veh_passenger"/>
    <trip id="veh86" depart="35.67" from="23140984" to="39236239#0-AddedOffRampEdge" departLane="best" type="veh_passenger"/>
    <trip id="veh87" depart="36.08" from="446490426" to="1125492994" departLane="best" type="veh_passenger"/>
    <trip id="veh88" depart="36.50" from="-28421447" to="22734465#0" departLane="best" type="veh_passenger"/>
    <trip id="veh89" depart="36.91" from="207895140" to="23143414" departLane="best" type="veh_passenger"/>
    <trip id="veh90" depart="37.33" from="31057423" to="28189986" departLane="best" type="veh_passenger"/>
    <trip id="veh91" depart="37.74" from="96690969#1" to="-28829465" departLane="best" type="veh_passenger"/>
    <trip id="veh92" depart="38.16" from="189609916" to="183236510" departLane="best" type="veh_passenger"/>
    <trip id="veh93" depart="38.57" from="57741043" to="1362569055" departLane="best" type="veh_passenger"/>
    <trip id="veh94" depart="38.99" from="10622112" to="23013163" departLane="best" type="veh_passenger"/>
    <trip id="veh95" depart="39.40" from="207399149" to="163218491" departLane="best" type="veh_passenger"/>
    <trip id="veh96" depart="39.82" from="1291717564" to="816147782#0" departLane="best" type="veh_passenger" departSpeed="max"/>
    <trip id="veh97" depart="40.23" from="22734041" to="57741482" departLane="best" type="veh_passenger"/>
    <trip id="veh98" depart="40.65" from="23713898#0" to="-207895145" departLane="best" type="veh_passenger"/>
    <trip id="veh99" depart="41.06" from="997902095" to="51751628#1" departLane="best" type="veh_passenger" departSpeed="max"/>
    <trip id="veh100" depart="41.48" from="888069629" to="816492957" departLane="best" type="veh_passenger"/>
    <trip id="veh101" depart="41.89" from="539908077" to="105883176" departLane="best" type="veh_passenger"/>
    <trip id="veh102" depart="42.31" from="23143442#0" to="1218715037" departLane="best" type="veh_passenger"/>
    <trip id="veh103" depart="42.72" from="189609905" to="-23189189" departLane="best" type="veh_passenger"/>
    <trip id="veh104" depart="43.14" from="188447020" to="966431231" departLane="best" type="veh_passenger"/>
    <trip id="veh105" depart="43.55" from="134780142" to="39236239#0" departLane="best" type="veh_passenger"/>
    <trip id="veh106" depart="43.96" from="22992435#1" to="22724305" departLane="best" type="veh_passenger"/>
    <trip id="veh107" depart="44.38" from="858210763" to="991432098" departLane="best" type="veh_passenger"/>
    <trip id="veh108" depart="44.79" from="23763874" to="303539658#0" departLane="best" type="veh_passenger"/>
    <trip id="veh109" depart="45.21" from="-837666979" to="164011284" departLane="best" type="veh_passenger"/>
    <trip id="veh110" depart="45.62" from="888069627#0" to="24457755" departLane="best" type="veh_passenger"/>
    <trip id="veh111" depart="46.04" from="23611178" to="337076410" departLane="best" type="veh_passenger" departSpeed="max"/>
    <trip id="veh112" depart="46.45" from="-22986965#1" to="24485344" departLane="best" type="veh_passenger" departSpeed="max"/>
    <trip id="veh113" depart="46.87" from="23187871" to="56229484#1" departLane="best" type="veh_passenger"/>
    <trip id="veh114" depart="47.28" from="-86493207" to="879819771" departLane="best" type="veh_passenger" departSpeed="max"/>
    <trip id="veh115" depart="47.70" from="-253081136" to="1074173524" departLane="best" type="veh_passenger"/>
    <trip id="veh116" depart="48.11" from="25203774#1-AddedOnRampEdge" to="282728429" departLane="best" type="veh_passenger"/>
    <trip id="veh117" depart="48.53" from="1222220483" to="-44386276#0" departLane="best" type="veh_passenger"/>
    <trip id="veh118" depart="48.94" from="687503323" to="134780146" departLane="best" type="veh_passenger"/>
    <trip id="veh119" depart="49.36" from="25203774#0" to="26128333" departLane="best" type="veh_passenger"/>
    <trip id="veh120" depart="49.77" from="199305545#2" to="24484814" departLane="best" type="veh_passenger"/>
    <trip id="veh121" depart="50.19" from="23455227#0" to="83338104" departLane="best" type="veh_passenger"/>
    <trip id="veh122" depart="50.60" from="1125492957" to="303539649" departLane="best" type="veh_passenger"/>
    <trip id="veh123" depart="51.02" from="125342827" to="19786912" departLane="best" type="veh_passenger"/>
    <trip id="veh124" depart="51.43" from="27651351" to="164250097#0" departLane="best" type="veh_passenger"/>
    <trip id="veh125" depart="51.85" from="164011290#0" to="359247707" departLane="best" type="veh_passenger"/>
    <trip id="veh126" depart="52.26" from="-23760188" to="23103172" departLane="best" type="veh_passenger"/>
    <trip id="veh127" depart="52.67" from="992237619#0" to="991453249" departLane="best" type="veh_passenger"/>
    <trip id="veh128" depart="53.09" from="-238655491" to="1200862733" departLane="best" type="veh_passenger"/>
    <trip id="veh129" depart="53.50" from="134780142" to="82650303" departLane="best" type="veh_passenger"/>
    <trip id="veh130" depart="53.92" from="650579415" to="622697562#0" departLane="best" type="veh_passenger"/>
    <trip id="veh131" depart="54.33" from="188258569#0" to="1049456833#0" departLane="best" type="veh_passenger"/>
    <trip id="veh132" depart="54.75" from="4806288#0" to="28829506" departLane="best" type="veh_passenger"/>
    <trip id="veh133" depart="55.16" from="254626420" to="96690966-AddedOffRampEdge" departLane="best" type="veh_passenger"/>
    <trip id="veh134" depart="55.58" from="27299093" to="-1126652254" departLane="best" type="veh_passenger"/>
    <trip id="veh135" depart="55.99" from="4526386#1" to="164011293" departLane="best" type="veh_passenger"/>
    <trip id="veh136" depart="56.41" from="274800755#4" to="83338117" departLane="best" type="veh_passenger"/>
    <trip id="veh137" depart="56.82" from="-51865598" to="-377539282" departLane="best" type="veh_passenger"/>
    <trip id="veh138" depart="57.24" from="1409560901" to="25408815#0" departLane="best" type="veh_passenger" departSpeed="max"/>
    <trip id="veh139" depart="57.65" from="303539654" to="1158174600" departLane="best" type="veh_passenger"/>
    <trip id="veh140" depart="58.07" from="26278973#0" to="1424542162" departLane="best" type="veh_passenger"/>
    <trip id="veh141" depart="58.48" from="23154398#0" to="74408966" departLane="best" type="veh_passenger"/>
    <trip id="veh142" depart="58.90" from="538582844" to="-27486971#1" departLane="best" type="veh_passenger"/>
    <trip id="veh143" depart="59.31" from="207895140" to="161532958" departLane="best" type="veh_passenger"/>
    <trip id="veh144" depart="59.73" from="-1125492994" to="37829240#0" departLane="best" type="veh_passenger"/>
    <trip id="veh145" depart="60.14" from="264947485#0" to="1424542153" departLane="best" type="veh_passenger"/>
    <trip id="veh146" depart="60.56" from="32087232" to="23817698" departLane="best" type="veh_passenger"/>
    <trip id="veh147" depart="60.97" from="208140902" to="-1154826318" departLane="best" type="veh_passenger"/>
    <trip id="veh148" depart="61.38" from="-24421211" to="654292787#1" departLane="best" type="veh_passenger"/>
    <trip id="veh149" depart="61.80" from="717901058" to="23739521" departLane="best" type="veh_passenger"/>
    <trip id="veh150" depart="62.21" from="48470420" to="24484378" departLane="best" type="veh_passenger"/>
    <trip id="veh151" depart="62.63" from="-815392337" to="-619795396" departLane="best" type="veh_passenger"/>
    <trip id="veh152" depart="63.04" from="163847863" to="717379755" departLane="best" type="veh_passenger"/>
    <trip id="veh153" depart="63.46" from="410828249#0" to="57741480" departLane="best" type="veh_passenger"/>
    <trip id="veh154" depart="63.87" from="717379755" to="1188955871" departLane="best" type="veh_passenger"/>
    <trip id="veh155" depart="64.29" from="1291717564" to="-303539650" departLane="best" type="veh_passenger" departSpeed="max"/>
    <trip id="veh156" depart="64.70" from="383638709" to="66057667#0" departLane="best" type="veh_passenger"/>
    <trip id="veh157" depart="65.12" from="189754934" to="26128335" departLane="best" type="veh_passenger"/>
    <trip id="veh158" depart="65.53" from="-837666975" to="819481309#2" departLane="best" type="veh_passenger"/>
    <trip id="veh159" depart="65.95" from="59175205#0" to="94225792" departLane="best" type="veh_passenger"/>
    <trip id="veh160" depart="66.36" from="4520562" to="650579419" departLane="best" type="veh_passenger"/>
    <trip id="veh161" depart="66.78" from="-1441641793" to="32087264" departLane="best" type="veh_passenger" departSpeed="max"/>
    <trip id="veh162" depart="67.19" from="166618185" to="819529503" departLane="best" type="veh_passenger"/>
    <trip id="veh163" depart="67.61" from="431342352" to="605651890" departLane="best" type="veh_passenger"/>
    <trip id="veh164" depart="68.02" from="4520562" to="1426601359" departLane="best" type="veh_passenger"/>
    <trip id="veh165" depart="68.44" from="39236239#0-AddedOffRampEdge" to="-315384694" departLane="best" type="veh_passenger"/>
    <trip id="veh166" depart="68.85" from="622693851#3" to="57402820" departLane="best" type="veh_passenger"/>
    <trip id="veh167" depart="69.27" from="1163366696" to="456633655" departLane="best" type="veh_passenger"/>
    <trip id="veh168" depart="69.68" from="23012995" to="164639937" departLane="best" type="veh_passenger"/>
    <trip id="veh169" depart="70.09" from="410828248#0" to="128275319#2" departLane="best" type="veh_passenger"/>
    <trip id="veh170" depart="70.51" from="-1441641793" to="1126652254" departLane="best" type="veh_passenger" departSpeed="max"/>
    <trip id="veh171" depart="70.92" from="165446513#0" to="605651890" departLane="best" type="veh_passenger"/>
    <trip id="veh172" depart="71.34" from="883061215#0" to="163401795#0" departLane="best" type="veh_passenger"/>
    <trip id="veh173" depart="71.75" from="26557766" to="19787355#0" departLane="best" type="veh_passenger"/>
    <trip id="veh174" depart="72.17" from="966431228" to="23684133#3" departLane="best" type="veh_passenger"/>
    <trip id="veh175" depart="72.58" from="83338112#0" to="-372453528" departLane="best" type="veh_passenger"/>
    <trip id="veh176" depart="73.00" from="90505885" to="1062967095" departLane="best" type="veh_passenger"/>
    <trip id="veh177" depart="73.41" from="87398618#0" to="1424544620" departLane="best" type="veh_passenger"/>
    <trip id="veh178" depart="73.83" from="-303539653" to="22903668" departLane="best" type="veh_passenger"/>
    <trip id="veh179" depart="74.24" from="307132354" to="166618178" departLane="best" type="veh_passenger"/>
    <trip id="veh180" depart="74.66" from="253650086" to="23292753" departLane="best" type="veh_passenger" departSpeed="max"/>
    <trip id="veh181" depart="75.07" from="18920703#1" to="24454733#1" departLane="best" type="veh_passenger"/>
    <trip id="veh182" depart="75.49" from="1309832060#0" to="296271602" departLane="best" type="veh_passenger"/>
    <trip id="veh183" depart="75.90" from="-106402297" to="816492953" departLane="best" type="veh_passenger"/>
    <trip id="veh184" depart="76.32" from="23602784" to="303547277" departLane="best" type="veh_passenger"/>
    <trip id="veh185" depart="76.73" from="32087252" to="279660963" departLane="best" type="veh_passenger"/>
    <trip id="veh186" depart="77.15" from="188258517" to="-24423376" departLane="best" type="veh_passenger"/>
    <trip id="veh187" depart="77.56" from="27486971#0" to="183110928" departLane="best" type="veh_passenger" departSpeed="max"/>
    <trip id="veh188" depart="77.98" from="163982065" to="538611685" departLane="best" type="veh_passenger"/>
    <trip id="veh189" depart="78.39" from="303544105" to="164353041" departLane="best" type="veh_passenger" departSpeed="max"/>
    <trip id="veh190" depart="78.80" from="163847864" to="207895141" departLane="best" type="veh_passenger"/>
    <trip id="veh191" depart="79.22" from="189609915" to="164011282" departLane="best" type="veh_passenger"/>
    <trip id="veh192" depart="79.63" from="-39236301" to="22664099" departLane="best" type="veh_passenger"/>
    <trip id="veh193" depart="80.05" from="83338117" to="28421406#0" departLane="best" type="veh_passenger"/>
    <trip id="veh194" depart="80.46" from="717901053" to="25833309" departLane="best" type="veh_passenger" departSpeed="max"/>
    <trip id="veh195" depart="80.88" from="163596463" to="23760164#2" departLane="best" type="veh_passenger"/>
    <trip id="veh196" depart="81.29" from="-1052424831" to="163710823#0" departLane="best" type="veh_passenger"/>
    <trip id="veh197" depart="81.71" from="215602759" to="24457767" departLane="best" type="veh_passenger"/>
    <trip id="veh198" depart="82.12" from="27311461" to="23143408" departLane="best" type="veh_passenger"/>
    <trip id="veh199" depart="82.54" from="22734013" to="1218715037" departLane="best" type="veh_passenger"/>
    <trip id="veh200" depart="82.95" from="23140987#0" to="717901042" departLane="best" type="veh_passenger"/>
    <trip id="veh201" depart="83.37" from="410828249#0" to="105899328#0" departLane="best" type="veh_passenger"/>
    <trip id="veh202" depart="83.78" from="-257117436" to="234891634#0" departLane="best" type="veh_passenger" departSpeed="max"/>
    <trip id="veh203" depart="84.20" from="26260294" to="183110934#0" departLane="best" type="veh_passenger" departSpeed="max"/>
    <trip id="veh204" depart="84.61" from="454757478" to="356678927" departLane="best" type="veh_passenger"/>
    <trip id="veh205" depart="85.03" from="27653793" to="1266835996" departLane="best" type="veh_passenger"/>
    <trip id="veh206" depart="85.44" from="1074173522#0-AddedOffRampEdge" to="-1424348990" departLane="best" type="veh_passenger"/>
    <trip id="veh207" depart="85.86" from="1266835996" to="23143445#1" departLane="best" type="veh_passenger"/>
    <trip id="veh208" depart="86.27" from="552823382" to="-24484358" departLane="best" type="veh_passenger" departSpeed="max"/>
    <trip id="veh209" depart="86.69" from="19787329" to="264947485#0" departLane="best" type="veh_passenger"/>
    <trip id="veh210" depart="87.10" from="106402265" to="28703713" departLane="best" type="veh_passenger"/>
    <trip id="veh211" depart="87.51" from="23154405" to="134780131#0" departLane="best" type="veh_passenger"/>
    <trip id="veh212" depart="87.93" from="27364756" to="-1125498413" departLane="best" type="veh_passenger"/>
    <trip id="veh213" depart="88.34" from="33292407#0" to="377708637#0" departLane="best" type="veh_passenger"/>
    <trip id="veh214" depart="88.76" from="-297719150" to="22732219" departLane="best" type="veh_passenger"/>
    <trip id="veh215" depart="89.17" from="1051209345" to="87398616#0" departLane="best" type="veh_passenger"/>
    <trip id="veh216" depart="89.59" from="23284216#1" to="-207895144" departLane="best" type="veh_passenger"/>
    <trip id="veh217" depart="90.00" from="1291717564" to="538611685" departLane="best" type="veh_passenger" departSpeed="max"/>
    <trip id="veh218" depart="90.42" from="22992446#0-AddedOffRampEdge" to="43652194" departLane="best" type="veh_passenger"/>
    <trip id="veh219" depart="90.83" from="276479263" to="96690969#1" departLane="best" type="veh_passenger"/>
    <trip id="veh220" depart="91.25" from="25203774#1-AddedOnRampEdge" to="85476546" departLane="best" type="veh_passenger"/>
    <trip id="veh221" depart="91.66" from="707044888" to="25833231" departLane="best" type="veh_passenger"/>
    <trip id="veh222" depart="92.08" from="303539658#0" to="23280106" departLane="best" type="veh_passenger"/>
    <trip id="veh223" depart="92.49" from="476752764" to="23760164#1" departLane="best" type="veh_passenger"/>
    <trip id="veh224" depart="92.91" from="717055770" to="33084831" departLane="best" type="veh_passenger"/>
    <trip id="veh225" depart="93.32" from="23140988-AddedOffRampEdge" to="1424542153" departLane="best" type="veh_passenger"/>
    <trip id="veh226" depart="93.74" from="128275319#1" to="267278905#0" departLane="best" type="veh_passenger"/>
    <trip id="veh227" depart="94.15" from="375391927" to="23557993" departLane="best" type="veh_passenger"/>
    <trip id="veh228" depart="94.57" from="26128335" to="155721641" departLane="best" type="veh_passenger"/>
    <trip id="veh229" depart="94.98" from="-24518298" to="163710817#1" departLane="best" type="veh_passenger"/>
    <trip id="veh230" depart="95.40" from="1409560901" to="171225146" departLane="best" type="veh_passenger" departSpeed="max"/>
    <trip id="veh231" depart="95.81" from="23610636" to="-816492979" departLane="best" type="veh_passenger"/>
    <trip id="veh232" depart="96.22" from="1192487319#0" to="28703689#0-AddedOffRampEdge" departLane="best" type="veh_passenger"/>
    <trip id="veh233" depart="96.64" from="28829514" to="-23576634#0" departLane="best" type="veh_passenger"/>
    <trip id="veh234" depart="97.05" from="190097574#0" to="23731110" departLane="best" type="veh_passenger"/>
    <trip id="veh235" depart="97.47" from="19787370#0" to="117500175" departLane="best" type="veh_passenger"/>
    <trip id="veh236" depart="97.88" from="199305545#2-AddedOffRampEdge" to="74408966" departLane="best" type="veh_passenger"/>
    <trip id="veh237" depart="98.30" from="24469254#1" to="28703699#1" departLane="best" type="veh_passenger"/>
    <trip id="veh238" depart="98.71" from="56496752#0" to="376667595" departLane="best" type="veh_passenger"/>
    <trip id="veh239" depart="99.13" from="188741890" to="-1125498414" departLane="best" type="veh_passenger"/>
    <trip id="veh240" depart="99.54" from="183110932#0" to="360707909" departLane="best" type="veh_passenger"/>
    <trip id="veh241" depart="99.96" from="56229478#0" to="85476568" departLane="best" type="veh_passenger"/>
    <trip id="veh242" depart="100.37" from="199305545#1" to="337071756#1" departLane="best" type="veh_passenger"/>
    <trip id="veh243" depart="100.79" from="23681975" to="253107614#1" departLane="best" type="veh_passenger"/>
    <trip id="veh244" depart="101.20" from="115560792" to="125342830" departLane="best" type="veh_passenger"/>
    <trip id="veh245" depart="101.62" from="22664099" to="-157262518" departLane="best" type="veh_passenger"/>
    <trip id="veh246" depart="102.03" from="171034739" to="28421418" departLane="best" type="veh_passenger"/>
    <trip id="veh247" depart="102.45" from="18962979#0" to="105883168" departLane="best" type="veh_passenger"/>
    <trip id="veh248" depart="102.86" from="23051852#0" to="-619795396" departLane="best" type="veh_passenger"/>
    <trip id="veh249" depart="103.28" from="25833335" to="-1441641792#1" departLane="best" type="veh_passenger"/>
    <trip id="veh250" depart="103.69" from="189597337#0" to="24421140#1-AddedOnRampEdge" departLane="best" type="veh_passenger"/>
    <trip id="veh251" depart="104.11" from="-163001408" to="27281411" departLane="best" type="veh_passenger"/>
    <trip id="veh252" depart="104.52" from="-538582798#2" to="23143396" departLane="best" type="veh_passenger"/>
    <trip id="veh253" depart="104.93" from="-207972210#0" to="189597341" departLane="best" type="veh_passenger"/>