<?xml version="1.0" encoding="UTF-8"?>

<!-- generated on 2025-10-15 21:30:51 by Eclipse SUMO polyconvert Version 1.24.0
<polyconvertConfiguration xmlns:xsi="http://www.w3.org/2001/XMLSchema-instance" xsi:noNamespaceSchemaLocation="http://sumo.dlr.de/xsd/polyconvertConfiguration.xsd">

    <input>
        <net-file value="centro.net.xml"/>
        <osm-files value="centro.osm"/>
        <type-file value="typemap.xml"/>
    </input>

    <output>
        <output-file value="centro.poly.xml"/>
    </output>

</polyconvertConfiguration>
-->

<additional xmlns:xsi="http://www.w3.org/2001/XMLSchema-instance" xsi:noNamespaceSchemaLocation="http://sumo.dlr.de/xsd/additional_file.xsd">
    <location netOffset="-608978.26,-4739707.64" convBoundary="-179.17,-702.12,2806.24,1927.96" origBoundary="-1.669446,42.795668,-1.632803,42.819364" projParameter="+proj=utm +zone=30 +ellps=WGS84 +datum=WGS84 +units=m +no_defs"/>

    <poly id="1008729043" type="unknown" color="51,128,255" fill="0" layer="-1.00" shape="1193.072749,1401.216334 1198.434360,1407.533391 1200.986372,1409.029284 1205.242971,1410.807907 1217.533898,1425.122141 1238.495239,1446.450647 1249.432975,1457.422142 1250.802048,1463.342152 1251.512254,1464.953000 1254.814072,1468.138149 1256.126232,1469.436508"/>
    <poly id="1008729044" type="unknown" color="51,128,255" fill="0" layer="-1.00" shape="1344.048165,1499.723239 1344.118522,1503.500935 1344.284464,1512.545144 1344.511381,1518.802332"/>
    <poly id="1008729045" type="unknown" color="51,128,255" fill="0" layer="-1.00" shape="1352.706785,1496.229700 1364.171144,1495.235871 1374.361217,1494.155007"/>
    <poly id="1008729046" type="unknown" color="51,128,255" fill="0" layer="-1.00" shape="1138.811652,1373.768675 1144.694533,1369.475205"/>
    <poly id="1008729047" type="unknown" color="51,128,255" fill="0" layer="-1.00" shape="1162.169804,1350.560657 1172.359965,1345.391914 1183.288052,1339.079798"/>
    <poly id="1008729048" type="unknown" color="51,128,255" fill="0" layer="-1.00" shape="1162.169804,1350.560657 1173.937430,1360.279025 1188.431227,1361.621477"/>
    <poly id="1008729049" type="unknown" color="51,128,255" fill="0" layer="-1.00" shape="1036.579639,1157.338247 1046.634047,1188.855334 1048.139113,1193.955507 1052.412414,1204.942442 1060.254892,1215.186629 1095.245106,1260.908683 1139.864612,1320.669229 1157.273565,1343.262498 1162.169804,1350.560657"/>
    <poly id="1008729050" type="unknown" color="51,128,255" fill="0" layer="-1.00" shape="914.287265,1272.271580 978.339411,1296.596910 995.679063,1303.071611 1000.245671,1303.366640 1005.031773,1299.644249 1007.142820,1294.957239 1008.787786,1244.666362 1009.324310,1235.644501 1009.039574,1231.452416 1007.813141,1221.702642 1005.175583,1209.675519 998.820747,1190.246994 984.725344,1169.550884"/>
    <poly id="1008729051" type="unknown" color="51,128,255" fill="0" layer="-1.00" shape="1010.015665,1155.947877 1010.590827,1156.290282 1021.222505,1156.260039 1036.579639,1157.338247"/>
    <poly id="1008729052" type="unknown" color="51,128,255" fill="0" layer="-1.00" shape="990.338102,1171.939705 995.991576,1167.164823 1003.728386,1160.979214 1006.428773,1158.823019 1010.015665,1155.947877"/>
    <poly id="1008729054" type="unknown" color="51,128,255" fill="0" layer="-1.00" shape="1193.072749,1401.216334 1191.642414,1402.193146 1181.852441,1410.467261 1179.122062,1412.967241"/>
    <poly id="1009702367" type="building" color="255,230,230" fill="1" layer="2.00" shape="1061.252526,910.445160 1081.821206,902.209690 1077.974549,892.662431 1075.559185,886.692440 1086.637609,882.270834 1099.682904,877.080917 1095.766040,867.321483 1093.507464,861.776076 1101.557264,858.550167 1109.648131,855.313816 1115.100609,868.774381 1140.913151,858.401340 1128.947759,828.752994 1125.147693,819.361959 1123.934865,816.443518 1122.574848,813.011779 1119.286348,804.872964 1094.560348,814.796927 1032.588816,839.699126 1051.731268,887.000657 1054.996338,895.072421 1057.334566,900.752377 1061.252526,910.445160"/>
    <poly id="1010029163" type="unknown" color="51,128,255" fill="0" layer="-1.00" shape="1368.159653,605.629383 1373.599595,618.323536"/>
    <poly id="1010029164" type="unknown" color="51,128,255" fill="0" layer="-1.00" shape="1373.863218,612.074210 1377.456183,620.595682"/>
    <poly id="1010029165" type="unknown" color="51,128,255" fill="0" layer="-1.00" shape="1241.289409,678.064368 1237.473589,669.150643"/>
    <poly id="1010029166" type="unknown" color="51,128,255" fill="0" layer="-1.00" shape="1234.655121,661.796816 1237.473589,669.150643"/>
    <poly id="1010029167" type="unknown" color="51,128,255" fill="0" layer="-1.00" shape="1237.899155,660.438032 1243.041732,672.816310"/>
    <poly id="1010029168" type="unknown" color="51,128,255" fill="0" layer="-1.00" shape="1250.213082,697.945168 1241.289409,678.064368"/>
    <poly id="1010029169" type="unknown" color="51,128,255" fill="0" layer="-1.00" shape="1237.104593,703.478138 1241.466984,714.011197"/>
    <poly id="1010029170" type="unknown" color="51,128,255" fill="0" layer="-1.00" shape="1263.774487,692.219532 1268.269266,702.654758"/>
    <poly id="1010029171" type="unknown" color="51,128,255" fill="0" layer="-1.00" shape="1383.525388,504.596825 1379.267048,493.698794 1376.037689,485.449727"/>
    <poly id="1010029172" type="unknown" color="51,128,255" fill="0" layer="-1.00" shape="1277.738473,561.629424 1272.213043,553.754659 1266.479808,545.576671"/>
    <poly id="1010029173" type="unknown" color="51,128,255" fill="0" layer="-1.00" shape="1423.210896,579.486277 1385.282021,595.629044 1369.982295,602.126364 1370.925954,604.485163"/>
    <poly id="1010029174" type="unknown" color="51,128,255" fill="0" layer="-1.00" shape="1430.005747,621.959294 1434.166875,632.278214"/>
    <poly id="1010029175" type="unknown" color="51,128,255" fill="0" layer="-1.00" shape="1370.925954,604.485163 1368.159653,605.629383 1365.343407,606.828342 1311.386452,629.523853 1290.887422,637.937508 1237.899155,660.438032 1234.655121,661.796816"/>
    <poly id="1010029176" type="unknown" color="51,128,255" fill="0" layer="-1.00" shape="1435.422625,592.688821 1429.469970,595.159311 1373.599595,618.323536 1316.590427,642.147538 1296.173191,650.562484 1243.041732,672.816310 1176.530580,700.199412 1162.357124,706.359738 1154.412346,709.653905"/>
    <poly id="1010029177" type="landuse" color="194,194,130" fill="1" layer="-4.00" shape="1243.263173,670.731635 1293.320874,649.417204 1289.856869,641.008917 1239.615325,662.053853 1243.263173,670.731635"/>
    <poly id="1010029178" type="building" color="255,230,230" fill="1" layer="2.00" shape="1169.993555,662.484835 1194.800718,652.129226 1184.526189,627.717258 1159.718780,638.084009 1164.115459,648.528701 1167.755764,657.172996 1169.993555,662.484835"/>
    <poly id="1010029179" type="building" color="255,230,230" fill="1" layer="2.00" shape="1120.939485,725.447200 1112.251305,704.115253 1090.281397,712.994726 1095.805852,726.567491 1098.969631,734.326644 1115.877020,727.498979 1120.939485,725.447200"/>
    <poly id="1010029180" type="building" color="255,230,230" fill="1" layer="2.00" shape="1053.784604,768.116235 1060.427920,762.835144 1069.506797,755.604700 1063.276372,747.829921 1061.271658,749.430721 1056.227903,743.141089 1058.298913,741.485809 1052.300787,734.014653 1035.004532,747.789576 1040.529305,754.686677 1042.865316,752.824578 1047.219570,758.247914 1046.399310,758.912379 1053.784604,768.116235"/>
    <poly id="1010029181" type="building" color="255,230,230" fill="1" layer="2.00" shape="957.855692,776.671075 961.185571,774.025062 970.431345,785.546652 976.337506,780.842423 980.098447,785.523153 983.627217,782.713710 988.799345,789.160842 995.447177,797.430944 978.962910,810.563611 972.219084,802.158704 971.040215,800.695920 969.709187,799.030773 966.818322,801.328345 960.688593,806.206736 962.051618,807.916822 963.238486,809.390840 969.854154,817.627081 951.729853,832.066551 946.661890,825.754398 923.940232,843.863851 909.249627,825.557672 920.225212,816.813334 915.253553,810.613817 943.260064,788.301115 957.855692,776.671075"/>
    <poly id="101360285" type="unknown" color="51,128,255" fill="0" layer="-1.00" shape="1158.179048,1381.264772 1145.567581,1363.968708 1086.297939,1287.579375"/>
    <poly id="101360287" type="unknown" color="51,128,255" fill="0" layer="-1.00" shape="1169.808384,1375.074919 1178.579868,1387.544508"/>
    <poly id="101360289" type="unknown" color="51,128,255" fill="0" layer="-1.00" shape="1178.579868,1387.544508 1167.211262,1393.283104"/>
    <poly id="101360291" type="unknown" color="51,128,255" fill="0" layer="-1.00" shape="1167.211262,1393.283104 1158.179048,1381.264772"/>
    <poly id="101360292" type="unknown" color="51,128,255" fill="0" layer="-1.00" shape="1167.211262,1393.283104 1155.418025,1396.426873 1150.748987,1398.451578 1140.903696,1403.026054"/>
    <poly id="1018822124" type="building" color="255,230,230" fill="1" layer="2.00" shape="725.393265,663.813586 712.497052,646.269520 701.620257,654.460383 708.741470,663.848473 714.773128,671.808578 725.393265,663.813586"/>
    <poly id="1018822125" type="building" color="255,230,230" fill="1" layer="2.00" shape="819.146803,645.568388 822.303897,649.661816 823.674104,651.438631 826.238349,654.756197 828.618075,657.848675 818.235801,665.791764 808.764523,653.511492 813.541889,649.844357 819.146803,645.568388"/>
    <poly id="1018822126" type="building" color="255,230,230" fill="1" layer="2.00" shape="858.260531,623.221236 865.803193,617.443345 880.002527,606.573239 886.882616,601.317971 880.175771,592.624962 851.561850,614.528384 854.574597,618.441806 858.260531,623.221236"/>
    <poly id="1018822127" type="building" color="255,230,230" fill="1" layer="2.00" shape="892.155770,667.114091 894.583635,670.262897 858.908520,697.518621 846.753677,681.718876 844.397966,678.660096 847.254363,676.472999 876.347384,654.255084 880.072938,651.415402 886.306699,659.512175 880.701753,663.788090 884.475460,668.702224 890.088581,664.426442 892.155770,667.114091"/>
    <poly id="1018822128" type="building" color="255,230,230" fill="1" layer="2.00" shape="858.908520,697.518621 861.496552,700.881012 825.623373,728.267033 810.888462,709.116209 822.653088,700.128811 844.203698,683.666490 846.753677,681.718876 858.908520,697.518621"/>
    <poly id="1019603513" type="unknown" color="51,128,255" fill="0" layer="-1.00" shape="20.862693,671.263277 22.955637,674.928518 25.620471,678.114075 36.396480,687.614780 73.165808,717.109192 89.491553,730.429906 93.521943,733.625993 97.513122,737.232439 130.018947,763.760651 195.803858,816.485480 217.055697,833.727736 237.103796,850.029066 261.130784,869.148178 285.933465,889.368211 283.935902,892.080092 276.588603,902.093644 274.834138,904.431727 278.583636,907.279145 285.032999,913.668226 286.739691,917.438507 287.397133,920.847821 287.431534,923.836281 286.785721,927.946921 284.719980,933.412377 288.508139,940.525690 290.346003,947.885771 302.445637,946.067162 311.420413,946.364980 312.795816,946.786661 315.864254,947.712812 320.040372,949.956108 323.671589,952.523989 325.602728,955.031587 328.424538,960.163572 343.349540,994.700238 357.291053,1027.299745 357.299387,1033.475643 356.926161,1037.412883 355.281446,1041.596530 351.760943,1048.549509 347.452486,1052.590933 343.493191,1054.727410 337.745219,1057.235386"/>
    <poly id="1019603565" type="unknown" color="51,128,255" fill="0" layer="-1.00" shape="409.827176,994.266661 421.396344,1021.741420 485.429669,994.978326"/>
    <poly id="1019603566" type="unknown" color="51,128,255" fill="0" layer="-1.00" shape="511.810939,1327.034171 534.378786,1306.599524 534.916615,1303.631259 533.098114,1300.736622 469.679729,1228.185655 465.340352,1223.362727 459.040317,1216.353809 421.399973,1172.970073 408.823786,1156.920039 388.236238,1112.341015 381.204569,1103.498936 372.665465,1096.887767 354.455186,1088.523694 348.531267,1087.174568 340.212533,1085.743030 335.862566,1085.185300 321.886829,1084.652622 302.921924,1086.739977 276.269578,1096.580719 139.235169,1151.713134"/>
    <poly id="1019603568" type="unknown" color="51,128,255" fill="1" layer="-1.00" shape="289.424907,1072.519419 286.500233,1060.465851 288.998274,1051.974904 289.884923,1045.568832 290.106498,1043.972867 292.468071,1045.121059 298.604280,1045.462719 303.606028,1043.598220 308.293473,1038.863006 309.667625,1035.752485 310.267459,1031.963235 309.188921,1025.714829 330.222277,1022.127459 327.759077,1007.793048 327.092711,1003.917072 326.119663,998.236819 321.043791,999.100454 319.958136,992.785288 318.789940,986.002300 323.726478,985.158668 318.897312,957.057881 320.389369,954.249134 322.626617,957.050380 326.483708,961.876666 341.412957,998.723754 353.233413,1027.901822 353.386202,1033.735680 350.600397,1040.256015 348.416079,1044.431103 347.096809,1046.142944 338.089179,1052.564587 333.425001,1054.800964 289.424907,1072.519419"/>
    <poly id="1019708770" type="building" color="255,230,230" fill="1" layer="2.00" shape="1097.660883,386.606846 1088.821050,365.005955 1078.003996,369.398433 1056.048736,378.322709 1039.905435,384.885052 1026.668201,390.260873 1035.476724,411.783427 1097.660883,386.606846"/>
    <poly id="1019708771" type="building" color="255,230,230" fill="1" layer="2.00" shape="1277.718779,532.183031 1297.327223,524.754758 1296.275273,522.005474 1290.490070,506.851103 1287.428768,498.826920 1285.741155,494.401339 1280.206895,479.917446 1260.598346,487.345768 1267.820263,506.255222 1270.881584,514.279396 1277.718779,532.183031"/>
    <poly id="1019708774" type="building" color="255,230,230" fill="1" layer="2.00" shape="1306.928678,302.913175 1247.386686,326.941662 1237.883462,303.885982 1270.174968,291.017788 1286.415422,284.546384 1297.733667,280.028952 1306.928678,302.913175"/>
    <poly id="1019819400" type="building" color="255,230,230" fill="1" layer="2.00" shape="1099.869228,328.727487 1096.494398,320.342954 1094.370193,315.077391 1086.723806,296.072511 1084.639051,290.896443 1080.941521,281.718132 1101.001555,273.696692 1104.738174,282.986713 1106.822740,288.173893 1111.755392,300.415405 1114.430149,307.055991 1116.554342,312.321560 1119.928975,320.717208 1099.869228,328.727487"/>
    <poly id="1020392968" type="building" color="255,230,230" fill="1" layer="2.00" shape="558.649458,784.388250 568.278918,776.954873 570.671845,775.104631 574.381382,772.231213 582.371509,766.060267 563.841734,742.251163 555.851598,748.422130 549.749303,753.134701 540.119832,760.568105 558.649458,784.388250"/>
    <poly id="1020392973" type="building" color="255,230,230" fill="1" layer="2.00" shape="837.874046,403.356442 849.268999,395.018529 855.069667,390.790132 866.141877,382.691468 871.942743,378.451980 882.377601,370.831915 887.781468,378.160139 890.295139,381.576887 894.922136,387.870844 878.744195,399.697966 867.647288,407.807324 850.418625,420.395291 845.791611,414.101364 843.269755,410.684502 837.874046,403.356442"/>
    <poly id="1020392974" type="building" color="255,230,230" fill="1" layer="2.00" shape="957.574424,343.062387 964.351039,338.160977 971.210493,333.194250 962.970019,312.958216 945.246268,325.793535 957.574424,343.062387"/>
    <poly id="1020394836" type="building" color="255,230,230" fill="1" layer="2.00" shape="775.147926,339.366755 781.498111,355.073909 761.964850,362.926926 750.119174,349.231627 775.147926,339.366755"/>
    <poly id="1020394837" type="building" color="255,230,230" fill="1" layer="2.00" shape="775.147926,339.366755 774.495248,337.723560 772.434983,332.536875 766.608154,317.859953 741.587693,327.713883 750.119174,349.231627 775.147926,339.366755"/>
    <poly id="1040598157" type="unknown" color="51,128,255" fill="0" layer="-1.00" shape="1874.748566,914.640085 1865.413093,926.086245"/>
    <poly id="1040610799" type="unknown" color="51,128,255" fill="0" layer="-1.00" shape="1749.615130,1159.416555 1757.396454,1157.631082"/>
    <poly id="1040610800" type="unknown" color="51,128,255" fill="0" layer="-1.00" shape="379.140327,386.733174 382.306995,380.452148"/>
    <poly id="1040610801" type="unknown" color="51,128,255" fill="0" layer="-1.00" shape="406.865410,411.520689 400.534973,413.075250 396.757018,413.037517 393.055401,412.312334"/>
    <poly id="1041662152" type="building" color="255,230,230" fill="1" layer="2.00" shape="1036.228413,658.815616 1030.856496,645.922899 1028.202084,639.549245 1008.698468,647.624172 1012.818231,657.497857 1016.725017,666.879415 1033.561019,659.917116 1036.228413,658.815616"/>
    <poly id="1041662153" type="building" color="255,230,230" fill="1" layer="2.00" shape="1030.856496,645.922899 1036.228413,658.815616 1038.827703,665.055104 1055.869737,657.996180 1058.001950,657.119402 1057.198631,655.184976 1050.030608,637.998280 1030.856496,645.922899"/>
    <poly id="1041662154" type="building" color="255,230,230" fill="1" layer="2.00" shape="1075.748586,644.862345 1087.677893,639.932261 1095.079172,636.873702 1086.856014,617.137599 1067.525385,625.126266 1068.635882,627.798694 1071.014727,633.501514 1076.539024,631.212708 1078.137834,635.059226 1072.613718,637.336925 1075.748586,644.862345"/>
    <poly id="1041662155" type="building" color="255,230,230" fill="1" layer="2.00" shape="907.907621,558.344925 911.369300,566.930685 913.139248,571.335265 916.073806,578.613045 930.264196,572.930106 949.278070,565.313659 961.385878,560.475063 958.451358,553.197263 956.673257,548.792541 953.211624,540.206758 907.907621,558.344925"/>
    <poly id="1041662158" type="building" color="255,230,230" fill="1" layer="2.00" shape="967.961584,612.763076 976.989203,609.263818 967.505541,584.953680 948.117177,592.464135 954.088796,607.765568 957.600895,616.774245 967.961584,612.763076"/>
    <poly id="1041662161" type="building" color="255,230,230" fill="1" layer="2.00" shape="902.878350,476.224645 911.267628,472.759550 915.870021,470.844679 923.353870,467.742819 928.915295,481.082759 936.863880,500.125603 942.204985,512.917775 934.712999,516.019484 930.110807,517.923237 921.729571,521.399543 902.878350,476.224645"/>
    <poly id="1043815658" type="unknown" color="51,128,255" fill="0" layer="-1.00" shape="802.216549,1201.141060 804.052630,1197.793623 812.348252,1182.697368 814.007522,1179.669234"/>
    <poly id="1043815659" type="unknown" color="51,128,255" fill="0" layer="-1.00" shape="619.250084,1120.220751 629.690490,1130.161405 640.277549,1140.648676 650.421623,1150.706833 669.685914,1166.808199 674.872800,1169.756467 700.754658,1181.631292 766.441366,1212.789520 782.341335,1220.340387 789.668630,1221.878858 796.896494,1210.664319 801.909487,1201.935910 802.216549,1201.141060"/>
    <poly id="1043815660" type="unknown" color="51,128,255" fill="0" layer="-1.00" shape="774.764709,1234.970503 778.524069,1227.932671 782.341335,1220.340387"/>
    <poly id="1043815661" type="unknown" color="51,128,255" fill="0" layer="-1.00" shape="844.042812,1128.464510 799.346661,1123.076116"/>
    <poly id="1043815662" type="unknown" color="51,128,255" fill="0" layer="-1.00" shape="863.715869,1093.756024 804.616432,1086.938439"/>
    <poly id="1043815663" type="unknown" color="51,128,255" fill="0" layer="-1.00" shape="882.067523,1059.870697 823.019339,1052.898276"/>
    <poly id="1043815664" type="building" color="255,230,230" fill="1" layer="2.00" shape="801.818781,1120.871777 808.789944,1121.671495 816.626501,1122.562761 828.797503,1123.956291 831.752540,1124.292172 832.141362,1120.932788 838.810549,1121.694403 839.314294,1117.281636 839.485347,1115.784847 840.956629,1103.001319 847.715589,1103.775480 848.807117,1094.295943 832.432059,1092.424412 820.252825,1091.030746 816.391671,1090.591575 809.722453,1089.829983 808.639331,1099.298550 807.975564,1105.030564 803.698158,1104.540338 801.818781,1120.871777"/>
    <poly id="1043815665" type="building" color="255,230,230" fill="1" layer="2.00" shape="808.258683,1126.272653 820.495086,1127.667211 828.274405,1128.557578 830.930335,1129.188596 832.926361,1130.175647 834.421223,1131.821165 835.222418,1133.888824 835.203379,1136.110025 834.377239,1138.173967 832.863060,1139.793753 830.852246,1140.761389 828.633426,1140.925970 828.310330,1143.753240 827.503919,1150.738130 817.969667,1149.642083 817.340544,1155.252465 818.958003,1156.388987 820.076954,1158.017406 820.578124,1159.924777 820.391468,1161.887834 819.528880,1163.673510 818.116711,1165.050558 816.312776,1165.865989 814.339591,1166.012273 812.434605,1165.470977 810.825677,1164.312378 809.714900,1162.684091 809.238432,1160.766007 809.441436,1158.803210 804.584647,1158.237107 805.733302,1148.247529 795.194840,1147.046655 796.666212,1134.252014 807.204517,1135.463994 808.258683,1126.272653"/>
    <poly id="1043815668" type="building" color="255,230,230" fill="1" layer="2.00" shape="808.258683,1126.272653 808.789944,1121.671495 816.626501,1122.562761 828.797503,1123.956291 828.274405,1128.557578 820.495086,1127.667211 808.258683,1126.272653"/>
    <poly id="1043815674" type="building" color="255,230,230" fill="1" layer="2.00" shape="838.805827,1052.194565 835.965221,1051.860505 835.414757,1056.639076 847.700158,1058.045565 869.944543,1060.588271 870.495031,1055.809703 862.845740,1054.965794 861.376914,1054.764663 849.156738,1053.370296 838.805827,1052.194565"/>
    <poly id="1043815676" type="building" color="255,230,230" fill="1" layer="2.00" shape="816.391671,1090.591575 820.252825,1091.030746 832.432059,1092.424412 848.807117,1094.295943 849.329345,1089.750181 846.104845,1089.387784 844.121302,1089.156239 831.835956,1087.749755 816.922054,1086.045941 816.391671,1090.591575"/>
    <poly id="1043815681" type="building" color="255,230,230" fill="1" layer="2.00" shape="854.783947,1080.517899 853.663989,1090.241347 849.329345,1089.750181 846.104845,1089.387784 844.121302,1089.156239 831.835956,1087.749755 816.922054,1086.045941 818.811595,1069.592485 823.211482,1070.095779 823.837253,1064.696386 834.351310,1065.896910 835.414757,1056.639076 847.700158,1058.045565 869.944543,1060.588271 868.881405,1069.823892 862.122412,1069.049711 860.726583,1081.201309 854.783947,1080.517899"/>
    <poly id="1043815683" type="building" color="255,230,230" fill="1" layer="2.00" shape="839.936244,1042.326884 838.805827,1052.194565 849.156738,1053.370296 861.376914,1054.764663 862.845740,1054.965794 870.495031,1055.809703 876.519269,1056.505535 878.294561,1041.072161 872.694572,1040.438629 873.521105,1033.220806 868.288670,1032.615351 868.762954,1028.513128 864.452800,1028.022344 865.041477,1022.900051 852.821422,1021.494574 852.289951,1026.106833 846.796234,1025.475015 846.264590,1030.098380 841.407535,1029.543357 839.936244,1042.326884"/>
    <poly id="1043815684" type="building" color="255,230,230" fill="1" layer="2.00" shape="594.471154,513.212660 602.469411,507.064073 607.983652,502.830922 616.080934,496.628388 608.171353,486.394809 598.442811,493.859891 586.561562,502.979106 594.471154,513.212660"/>
    <poly id="1043815685" type="building" color="255,230,230" fill="1" layer="2.00" shape="629.824511,514.407876 608.214750,530.992105 628.818185,557.633371 642.727716,546.969221 650.427918,541.049207 629.824511,514.407876"/>
    <poly id="1044175492" type="unknown" color="51,128,255" fill="0" layer="-1.00" shape="679.848949,1047.697431 685.496112,1043.310962 690.712657,1039.261977"/>
    <poly id="1044175493" type="building" color="255,230,230" fill="1" layer="2.00" shape="697.619859,1093.932002 662.757774,1121.157167 662.814336,1125.312277 680.817572,1148.202515 682.714383,1146.688753 687.450649,1143.009781 694.199081,1137.763352 697.221235,1135.423332 697.718144,1135.031370 698.935359,1134.084388 700.410188,1135.962814 705.162984,1142.036515 707.952831,1145.557571 714.204962,1153.510098 732.960828,1138.869054 719.157892,1121.321603 697.619859,1093.932002"/>
    <poly id="1044175494" type="unknown" color="51,128,255" fill="0" layer="-1.00" shape="619.250084,1120.220751 615.759412,1117.055136 610.873924,1112.634409"/>
    <poly id="1044175495" type="unknown" color="51,128,255" fill="0" layer="-1.00" shape="669.685914,1166.808199 664.157321,1174.028981 660.123641,1179.296412"/>
    <poly id="1044175497" type="building" color="255,230,230" fill="1" layer="2.00" shape="761.910602,1192.779371 741.078646,1166.267248 760.182163,1151.365231 781.014096,1177.877412 761.910602,1192.779371"/>
    <poly id="1044175500" type="building" color="255,230,230" fill="1" layer="2.00" shape="568.260387,1037.436640 556.836061,1042.564443 553.485585,1046.010056 551.656174,1051.001573 551.419061,1055.629634 553.590417,1059.996071 564.390924,1069.931234 579.814721,1083.805325 581.478543,1082.543304 584.003971,1085.726878 605.795930,1068.890044 598.166127,1059.105194 583.530932,1040.378513 579.507488,1035.227313 578.753430,1034.304510 577.796209,1033.300725 568.260387,1037.436640"/>
    <poly id="1044175502" type="building" color="255,230,230" fill="1" layer="2.00" shape="767.864996,974.978018 790.370093,957.575508 796.452918,965.381011 798.600745,968.136564 809.596179,982.251648 818.652263,993.869986 820.752078,996.558136 826.594331,1004.059932 804.097460,1021.462454 798.575691,1014.376761 788.766275,1001.791204 782.090483,993.220953 773.971826,982.817205 767.864996,974.978018"/>
    <poly id="1044321905" type="building" color="255,230,230" fill="1" layer="2.00" shape="586.132083,893.734148 592.469941,901.976707 568.693903,920.126066 562.356036,911.883530 586.132083,893.734148"/>
    <poly id="1044321906" type="building" color="255,230,230" fill="1" layer="2.00" shape="586.132083,893.734148 574.145344,878.148602 561.338279,887.930685 550.369277,896.298025 560.072458,908.914854 562.356036,911.883530 586.132083,893.734148"/>
    <poly id="1044321907" type="building" color="255,230,230" fill="1" layer="2.00" shape="519.810650,985.672137 521.311316,984.385295 523.511476,986.941655 525.335416,985.382262 520.983269,980.325844 523.769031,977.937563 522.540517,976.507391 525.359161,974.108525 526.113939,974.986903 527.647666,973.678372 526.081760,971.865183 528.817589,969.531648 531.266618,972.380760 533.480305,970.483230 537.766396,966.830324 542.544811,967.705998 545.989655,971.703905 546.769138,971.027628 547.604085,972.007249 546.518033,972.934128 549.248271,976.098725 550.127100,975.346274 552.214907,977.767569 551.311196,978.541839 552.459357,979.881879 550.942332,981.168455 549.938514,980.008429 545.436673,983.857834 542.966180,985.962322 545.029811,988.361014 541.995238,990.967484 541.184114,990.032671 539.749911,991.253920 541.122939,992.853005 537.806681,995.688257 536.401302,994.066444 533.881054,996.214574 528.292234,989.727847 526.990789,990.829026 528.010607,992.011518 526.493413,993.309204 538.188476,1006.657430 569.253360,993.488918 583.011220,987.676242 558.362357,955.794661 523.583579,951.520976 511.668719,975.679320 519.810650,985.672137"/>
    <poly id="1052112815" type="unknown" color="51,128,255" fill="0" layer="-1.00" shape="930.834702,1410.457697 953.502947,1414.551422 951.028271,1428.196426"/>
    <poly id="1052112816" type="unknown" color="51,128,255" fill="0" layer="-1.00" shape="914.884152,1316.377992 945.229121,1322.160266 944.294492,1353.068727 941.312279,1354.442921 930.834702,1410.457697 928.278492,1424.090299"/>
    <poly id="1052112817" type="unknown" color="51,128,255" fill="0" layer="-1.00" shape="864.171526,1349.402988 857.689606,1379.489930 852.412192,1382.749181 847.404345,1409.116389"/>
    <poly id="1052112818" type="unknown" color="51,128,255" fill="0" layer="-1.00" shape="814.452487,1344.734123 812.042301,1356.914001 809.472225,1369.891073"/>
    <poly id="1052112819" type="unknown" color="51,128,255" fill="0" layer="-1.00" shape="781.738351,1338.292667 814.452487,1344.734123 849.367764,1351.599581"/>
    <poly id="1052112820" type="unknown" color="51,128,255" fill="0" layer="-1.00" shape="844.899602,1376.942392 809.472225,1369.891073 777.273086,1363.468947"/>
    <poly id="1052112821" type="building" color="255,230,230" fill="1" layer="2.00" shape="849.587981,1404.996977 867.518203,1408.270699 884.257981,1411.325553 887.561542,1393.384024 889.218478,1384.346697 892.264735,1369.722219 883.498323,1355.875761 866.244768,1352.723864 863.899044,1365.471238 861.365004,1379.259718 853.203049,1384.949969 849.587981,1404.996977"/>
    <poly id="1052112825" type="unknown" color="51,128,255" fill="0" layer="-1.00" shape="797.906598,1263.274527 785.164016,1258.761832 773.211409,1253.939625"/>
    <poly id="1052112826" type="unknown" color="51,128,255" fill="0" layer="-1.00" shape="908.921833,1288.736239 911.230062,1280.397970 914.287265,1272.271580"/>
    <poly id="1052112827" type="unknown" color="51,128,255" fill="0" layer="-1.00" shape="1004.869845,1323.111886 1005.559441,1315.258757 1005.031773,1299.644249"/>
    <poly id="1052112828" type="unknown" color="51,128,255" fill="0" layer="-1.00" shape="772.326384,1393.202753 759.931142,1391.028208 745.537852,1388.510861"/>
    <poly id="1052112829" type="unknown" color="51,128,255" fill="0" layer="-1.00" shape="850.086936,1347.523473 864.171526,1349.402988 907.510475,1355.192300"/>
    <poly id="1052112830" type="unknown" color="51,128,255" fill="0" layer="-1.00" shape="856.016929,1297.678546 857.536019,1290.105210 880.644056,1294.338980"/>
    <poly id="1052112831" type="unknown" color="51,128,255" fill="0" layer="-1.00" shape="818.077637,1312.757781 847.713893,1318.372825 848.954185,1311.872474 819.448534,1306.270614"/>
    <poly id="1052112832" type="unknown" color="51,128,255" fill="0" layer="-1.00" shape="829.345852,1292.266223 856.016929,1297.678546 853.313466,1310.808984"/>